* NGSPICE file created from wbqspiflash.ext - technology: sky130A

* Black-box entry subcircuit for sky130_fd_sc_hd__tapvpwrvgnd_1 abstract view
.subckt sky130_fd_sc_hd__tapvpwrvgnd_1 VGND VPWR
.ends

* Black-box entry subcircuit for sky130_fd_sc_hd__fill_2 abstract view
.subckt sky130_fd_sc_hd__fill_2 VGND VNB VPB VPWR
.ends

* Black-box entry subcircuit for sky130_fd_sc_hd__dfxtp_1 abstract view
.subckt sky130_fd_sc_hd__dfxtp_1 CLK D VGND VNB VPB VPWR Q
.ends

* Black-box entry subcircuit for sky130_fd_sc_hd__o211a_1 abstract view
.subckt sky130_fd_sc_hd__o211a_1 A1 A2 B1 C1 VGND VNB VPB VPWR X
.ends

* Black-box entry subcircuit for sky130_fd_sc_hd__a31o_2 abstract view
.subckt sky130_fd_sc_hd__a31o_2 A1 A2 A3 B1 VGND VNB VPB VPWR X
.ends

* Black-box entry subcircuit for sky130_fd_sc_hd__nand2_1 abstract view
.subckt sky130_fd_sc_hd__nand2_1 A B VGND VNB VPB VPWR Y
.ends

* Black-box entry subcircuit for sky130_fd_sc_hd__decap_4 abstract view
.subckt sky130_fd_sc_hd__decap_4 VGND VNB VPB VPWR
.ends

* Black-box entry subcircuit for sky130_fd_sc_hd__decap_6 abstract view
.subckt sky130_fd_sc_hd__decap_6 VGND VNB VPB VPWR
.ends

* Black-box entry subcircuit for sky130_ef_sc_hd__decap_12 abstract view
.subckt sky130_ef_sc_hd__decap_12 VGND VPWR VPB VNB
.ends

* Black-box entry subcircuit for sky130_fd_sc_hd__a21o_1 abstract view
.subckt sky130_fd_sc_hd__a21o_1 A1 A2 B1 VGND VNB VPB VPWR X
.ends

* Black-box entry subcircuit for sky130_fd_sc_hd__decap_8 abstract view
.subckt sky130_fd_sc_hd__decap_8 VGND VNB VPB VPWR
.ends

* Black-box entry subcircuit for sky130_fd_sc_hd__decap_3 abstract view
.subckt sky130_fd_sc_hd__decap_3 VGND VNB VPB VPWR
.ends

* Black-box entry subcircuit for sky130_fd_sc_hd__fill_1 abstract view
.subckt sky130_fd_sc_hd__fill_1 VGND VNB VPB VPWR
.ends

* Black-box entry subcircuit for sky130_fd_sc_hd__mux2_1 abstract view
.subckt sky130_fd_sc_hd__mux2_1 A0 A1 S VGND VNB VPB VPWR X
.ends

* Black-box entry subcircuit for sky130_fd_sc_hd__a22oi_1 abstract view
.subckt sky130_fd_sc_hd__a22oi_1 A1 A2 B1 B2 VGND VNB VPB VPWR Y
.ends

* Black-box entry subcircuit for sky130_fd_sc_hd__buf_4 abstract view
.subckt sky130_fd_sc_hd__buf_4 A VGND VNB VPB VPWR X
.ends

* Black-box entry subcircuit for sky130_fd_sc_hd__a31o_1 abstract view
.subckt sky130_fd_sc_hd__a31o_1 A1 A2 A3 B1 VGND VNB VPB VPWR X
.ends

* Black-box entry subcircuit for sky130_fd_sc_hd__a211o_1 abstract view
.subckt sky130_fd_sc_hd__a211o_1 A1 A2 B1 C1 VGND VNB VPB VPWR X
.ends

* Black-box entry subcircuit for sky130_fd_sc_hd__nor2_1 abstract view
.subckt sky130_fd_sc_hd__nor2_1 A B VGND VNB VPB VPWR Y
.ends

* Black-box entry subcircuit for sky130_fd_sc_hd__or4_1 abstract view
.subckt sky130_fd_sc_hd__or4_1 A B C D VGND VNB VPB VPWR X
.ends

* Black-box entry subcircuit for sky130_fd_sc_hd__o31ai_1 abstract view
.subckt sky130_fd_sc_hd__o31ai_1 A1 A2 A3 B1 VGND VNB VPB VPWR Y
.ends

* Black-box entry subcircuit for sky130_fd_sc_hd__a221o_1 abstract view
.subckt sky130_fd_sc_hd__a221o_1 A1 A2 B1 B2 C1 VGND VNB VPB VPWR X
.ends

* Black-box entry subcircuit for sky130_fd_sc_hd__or4_2 abstract view
.subckt sky130_fd_sc_hd__or4_2 A B C D VGND VNB VPB VPWR X
.ends

* Black-box entry subcircuit for sky130_fd_sc_hd__nor2_8 abstract view
.subckt sky130_fd_sc_hd__nor2_8 A B VGND VNB VPB VPWR Y
.ends

* Black-box entry subcircuit for sky130_fd_sc_hd__and3_1 abstract view
.subckt sky130_fd_sc_hd__and3_1 A B C VGND VNB VPB VPWR X
.ends

* Black-box entry subcircuit for sky130_fd_sc_hd__a21bo_1 abstract view
.subckt sky130_fd_sc_hd__a21bo_1 A1 A2 B1_N VGND VNB VPB VPWR X
.ends

* Black-box entry subcircuit for sky130_fd_sc_hd__a22o_1 abstract view
.subckt sky130_fd_sc_hd__a22o_1 A1 A2 B1 B2 VGND VNB VPB VPWR X
.ends

* Black-box entry subcircuit for sky130_fd_sc_hd__clkbuf_8 abstract view
.subckt sky130_fd_sc_hd__clkbuf_8 A VGND VNB VPB VPWR X
.ends

* Black-box entry subcircuit for sky130_fd_sc_hd__diode_2 abstract view
.subckt sky130_fd_sc_hd__diode_2 DIODE VGND VNB VPB VPWR
.ends

* Black-box entry subcircuit for sky130_fd_sc_hd__dfxtp_4 abstract view
.subckt sky130_fd_sc_hd__dfxtp_4 CLK D VGND VNB VPB VPWR Q
.ends

* Black-box entry subcircuit for sky130_fd_sc_hd__dfxtp_2 abstract view
.subckt sky130_fd_sc_hd__dfxtp_2 CLK D VGND VNB VPB VPWR Q
.ends

* Black-box entry subcircuit for sky130_fd_sc_hd__nand4_4 abstract view
.subckt sky130_fd_sc_hd__nand4_4 A B C D VGND VNB VPB VPWR Y
.ends

* Black-box entry subcircuit for sky130_fd_sc_hd__a32o_1 abstract view
.subckt sky130_fd_sc_hd__a32o_1 A1 A2 A3 B1 B2 VGND VNB VPB VPWR X
.ends

* Black-box entry subcircuit for sky130_fd_sc_hd__or2_1 abstract view
.subckt sky130_fd_sc_hd__or2_1 A B VGND VNB VPB VPWR X
.ends

* Black-box entry subcircuit for sky130_fd_sc_hd__nor2_2 abstract view
.subckt sky130_fd_sc_hd__nor2_2 A B VGND VNB VPB VPWR Y
.ends

* Black-box entry subcircuit for sky130_fd_sc_hd__and4_1 abstract view
.subckt sky130_fd_sc_hd__and4_1 A B C D VGND VNB VPB VPWR X
.ends

* Black-box entry subcircuit for sky130_fd_sc_hd__clkbuf_1 abstract view
.subckt sky130_fd_sc_hd__clkbuf_1 A VGND VNB VPB VPWR X
.ends

* Black-box entry subcircuit for sky130_fd_sc_hd__or4b_1 abstract view
.subckt sky130_fd_sc_hd__or4b_1 A B C D_N VGND VNB VPB VPWR X
.ends

* Black-box entry subcircuit for sky130_fd_sc_hd__buf_8 abstract view
.subckt sky130_fd_sc_hd__buf_8 A VGND VNB VPB VPWR X
.ends

* Black-box entry subcircuit for sky130_fd_sc_hd__buf_12 abstract view
.subckt sky130_fd_sc_hd__buf_12 A VGND VNB VPB VPWR X
.ends

* Black-box entry subcircuit for sky130_fd_sc_hd__o2111ai_4 abstract view
.subckt sky130_fd_sc_hd__o2111ai_4 A1 A2 B1 C1 D1 VGND VNB VPB VPWR Y
.ends

* Black-box entry subcircuit for sky130_fd_sc_hd__nor2b_4 abstract view
.subckt sky130_fd_sc_hd__nor2b_4 A B_N VGND VNB VPB VPWR Y
.ends

* Black-box entry subcircuit for sky130_fd_sc_hd__o22a_1 abstract view
.subckt sky130_fd_sc_hd__o22a_1 A1 A2 B1 B2 VGND VNB VPB VPWR X
.ends

* Black-box entry subcircuit for sky130_fd_sc_hd__o2111ai_1 abstract view
.subckt sky130_fd_sc_hd__o2111ai_1 A1 A2 B1 C1 D1 VGND VNB VPB VPWR Y
.ends

* Black-box entry subcircuit for sky130_fd_sc_hd__nand4_2 abstract view
.subckt sky130_fd_sc_hd__nand4_2 A B C D VGND VNB VPB VPWR Y
.ends

* Black-box entry subcircuit for sky130_fd_sc_hd__or2_2 abstract view
.subckt sky130_fd_sc_hd__or2_2 A B VGND VNB VPB VPWR X
.ends

* Black-box entry subcircuit for sky130_fd_sc_hd__o21ba_1 abstract view
.subckt sky130_fd_sc_hd__o21ba_1 A1 A2 B1_N VGND VNB VPB VPWR X
.ends

* Black-box entry subcircuit for sky130_fd_sc_hd__o21a_1 abstract view
.subckt sky130_fd_sc_hd__o21a_1 A1 A2 B1 VGND VNB VPB VPWR X
.ends

* Black-box entry subcircuit for sky130_fd_sc_hd__a31oi_2 abstract view
.subckt sky130_fd_sc_hd__a31oi_2 A1 A2 A3 B1 VGND VNB VPB VPWR Y
.ends

* Black-box entry subcircuit for sky130_fd_sc_hd__o31a_1 abstract view
.subckt sky130_fd_sc_hd__o31a_1 A1 A2 A3 B1 VGND VNB VPB VPWR X
.ends

* Black-box entry subcircuit for sky130_fd_sc_hd__o21ai_1 abstract view
.subckt sky130_fd_sc_hd__o21ai_1 A1 A2 B1 VGND VNB VPB VPWR Y
.ends

* Black-box entry subcircuit for sky130_fd_sc_hd__clkbuf_16 abstract view
.subckt sky130_fd_sc_hd__clkbuf_16 A VGND VNB VPB VPWR X
.ends

* Black-box entry subcircuit for sky130_fd_sc_hd__or3_1 abstract view
.subckt sky130_fd_sc_hd__or3_1 A B C VGND VNB VPB VPWR X
.ends

* Black-box entry subcircuit for sky130_fd_sc_hd__o311a_1 abstract view
.subckt sky130_fd_sc_hd__o311a_1 A1 A2 A3 B1 C1 VGND VNB VPB VPWR X
.ends

* Black-box entry subcircuit for sky130_fd_sc_hd__o2111a_1 abstract view
.subckt sky130_fd_sc_hd__o2111a_1 A1 A2 B1 C1 D1 VGND VNB VPB VPWR X
.ends

* Black-box entry subcircuit for sky130_fd_sc_hd__inv_2 abstract view
.subckt sky130_fd_sc_hd__inv_2 A VGND VNB VPB VPWR Y
.ends

* Black-box entry subcircuit for sky130_fd_sc_hd__and4b_2 abstract view
.subckt sky130_fd_sc_hd__and4b_2 A_N B C D VGND VNB VPB VPWR X
.ends

* Black-box entry subcircuit for sky130_fd_sc_hd__nand3b_2 abstract view
.subckt sky130_fd_sc_hd__nand3b_2 A_N B C VGND VNB VPB VPWR Y
.ends

* Black-box entry subcircuit for sky130_fd_sc_hd__a311o_1 abstract view
.subckt sky130_fd_sc_hd__a311o_1 A1 A2 A3 B1 C1 VGND VNB VPB VPWR X
.ends

* Black-box entry subcircuit for sky130_fd_sc_hd__a2111oi_1 abstract view
.subckt sky130_fd_sc_hd__a2111oi_1 A1 A2 B1 C1 D1 VGND VNB VPB VPWR Y
.ends

* Black-box entry subcircuit for sky130_fd_sc_hd__and4b_1 abstract view
.subckt sky130_fd_sc_hd__and4b_1 A_N B C D VGND VNB VPB VPWR X
.ends

* Black-box entry subcircuit for sky130_fd_sc_hd__o32a_1 abstract view
.subckt sky130_fd_sc_hd__o32a_1 A1 A2 A3 B1 B2 VGND VNB VPB VPWR X
.ends

* Black-box entry subcircuit for sky130_fd_sc_hd__o221ai_1 abstract view
.subckt sky130_fd_sc_hd__o221ai_1 A1 A2 B1 B2 C1 VGND VNB VPB VPWR Y
.ends

* Black-box entry subcircuit for sky130_fd_sc_hd__o2bb2a_1 abstract view
.subckt sky130_fd_sc_hd__o2bb2a_1 A1_N A2_N B1 B2 VGND VNB VPB VPWR X
.ends

* Black-box entry subcircuit for sky130_fd_sc_hd__o221a_1 abstract view
.subckt sky130_fd_sc_hd__o221a_1 A1 A2 B1 B2 C1 VGND VNB VPB VPWR X
.ends

* Black-box entry subcircuit for sky130_fd_sc_hd__nand4_1 abstract view
.subckt sky130_fd_sc_hd__nand4_1 A B C D VGND VNB VPB VPWR Y
.ends

* Black-box entry subcircuit for sky130_fd_sc_hd__a311oi_2 abstract view
.subckt sky130_fd_sc_hd__a311oi_2 A1 A2 A3 B1 C1 VGND VNB VPB VPWR Y
.ends

* Black-box entry subcircuit for sky130_fd_sc_hd__clkinv_2 abstract view
.subckt sky130_fd_sc_hd__clkinv_2 A VGND VNB VPB VPWR Y
.ends

* Black-box entry subcircuit for sky130_fd_sc_hd__or4_4 abstract view
.subckt sky130_fd_sc_hd__or4_4 A B C D VGND VNB VPB VPWR X
.ends

* Black-box entry subcircuit for sky130_fd_sc_hd__a21oi_1 abstract view
.subckt sky130_fd_sc_hd__a21oi_1 A1 A2 B1 VGND VNB VPB VPWR Y
.ends

* Black-box entry subcircuit for sky130_fd_sc_hd__o21bai_1 abstract view
.subckt sky130_fd_sc_hd__o21bai_1 A1 A2 B1_N VGND VNB VPB VPWR Y
.ends

* Black-box entry subcircuit for sky130_fd_sc_hd__a2bb2o_1 abstract view
.subckt sky130_fd_sc_hd__a2bb2o_1 A1_N A2_N B1 B2 VGND VNB VPB VPWR X
.ends

* Black-box entry subcircuit for sky130_fd_sc_hd__a311oi_1 abstract view
.subckt sky130_fd_sc_hd__a311oi_1 A1 A2 A3 B1 C1 VGND VNB VPB VPWR Y
.ends

* Black-box entry subcircuit for sky130_fd_sc_hd__nor4_4 abstract view
.subckt sky130_fd_sc_hd__nor4_4 A B C D VGND VNB VPB VPWR Y
.ends

* Black-box entry subcircuit for sky130_fd_sc_hd__o211ai_1 abstract view
.subckt sky130_fd_sc_hd__o211ai_1 A1 A2 B1 C1 VGND VNB VPB VPWR Y
.ends

* Black-box entry subcircuit for sky130_fd_sc_hd__nand2_2 abstract view
.subckt sky130_fd_sc_hd__nand2_2 A B VGND VNB VPB VPWR Y
.ends

* Black-box entry subcircuit for sky130_fd_sc_hd__and3b_1 abstract view
.subckt sky130_fd_sc_hd__and3b_1 A_N B C VGND VNB VPB VPWR X
.ends

* Black-box entry subcircuit for sky130_fd_sc_hd__o32ai_1 abstract view
.subckt sky130_fd_sc_hd__o32ai_1 A1 A2 A3 B1 B2 VGND VNB VPB VPWR Y
.ends

* Black-box entry subcircuit for sky130_fd_sc_hd__o21ai_2 abstract view
.subckt sky130_fd_sc_hd__o21ai_2 A1 A2 B1 VGND VNB VPB VPWR Y
.ends

* Black-box entry subcircuit for sky130_fd_sc_hd__nor4b_4 abstract view
.subckt sky130_fd_sc_hd__nor4b_4 A B C D_N VGND VNB VPB VPWR Y
.ends

* Black-box entry subcircuit for sky130_fd_sc_hd__or4bb_1 abstract view
.subckt sky130_fd_sc_hd__or4bb_1 A B C_N D_N VGND VNB VPB VPWR X
.ends

* Black-box entry subcircuit for sky130_fd_sc_hd__buf_6 abstract view
.subckt sky130_fd_sc_hd__buf_6 A VGND VNB VPB VPWR X
.ends

* Black-box entry subcircuit for sky130_fd_sc_hd__nor4b_1 abstract view
.subckt sky130_fd_sc_hd__nor4b_1 A B C D_N VGND VNB VPB VPWR Y
.ends

* Black-box entry subcircuit for sky130_fd_sc_hd__or3_2 abstract view
.subckt sky130_fd_sc_hd__or3_2 A B C VGND VNB VPB VPWR X
.ends

* Black-box entry subcircuit for sky130_fd_sc_hd__nor4_1 abstract view
.subckt sky130_fd_sc_hd__nor4_1 A B C D VGND VNB VPB VPWR Y
.ends

* Black-box entry subcircuit for sky130_fd_sc_hd__nor3_1 abstract view
.subckt sky130_fd_sc_hd__nor3_1 A B C VGND VNB VPB VPWR Y
.ends

* Black-box entry subcircuit for sky130_fd_sc_hd__and2_1 abstract view
.subckt sky130_fd_sc_hd__and2_1 A B VGND VNB VPB VPWR X
.ends

* Black-box entry subcircuit for sky130_fd_sc_hd__or3b_1 abstract view
.subckt sky130_fd_sc_hd__or3b_1 A B C_N VGND VNB VPB VPWR X
.ends

* Black-box entry subcircuit for sky130_fd_sc_hd__a211oi_2 abstract view
.subckt sky130_fd_sc_hd__a211oi_2 A1 A2 B1 C1 VGND VNB VPB VPWR Y
.ends

* Black-box entry subcircuit for sky130_fd_sc_hd__nand3b_1 abstract view
.subckt sky130_fd_sc_hd__nand3b_1 A_N B C VGND VNB VPB VPWR Y
.ends

* Black-box entry subcircuit for sky130_fd_sc_hd__or2b_1 abstract view
.subckt sky130_fd_sc_hd__or2b_1 A B_N VGND VNB VPB VPWR X
.ends

* Black-box entry subcircuit for sky130_fd_sc_hd__nor4_2 abstract view
.subckt sky130_fd_sc_hd__nor4_2 A B C D VGND VNB VPB VPWR Y
.ends

* Black-box entry subcircuit for sky130_fd_sc_hd__a32oi_1 abstract view
.subckt sky130_fd_sc_hd__a32oi_1 A1 A2 A3 B1 B2 VGND VNB VPB VPWR Y
.ends

* Black-box entry subcircuit for sky130_fd_sc_hd__clkbuf_4 abstract view
.subckt sky130_fd_sc_hd__clkbuf_4 A VGND VNB VPB VPWR X
.ends

* Black-box entry subcircuit for sky130_fd_sc_hd__o211ai_2 abstract view
.subckt sky130_fd_sc_hd__o211ai_2 A1 A2 B1 C1 VGND VNB VPB VPWR Y
.ends

* Black-box entry subcircuit for sky130_fd_sc_hd__and3_2 abstract view
.subckt sky130_fd_sc_hd__and3_2 A B C VGND VNB VPB VPWR X
.ends

* Black-box entry subcircuit for sky130_fd_sc_hd__and4bb_1 abstract view
.subckt sky130_fd_sc_hd__and4bb_1 A_N B_N C D VGND VNB VPB VPWR X
.ends

* Black-box entry subcircuit for sky130_fd_sc_hd__and4_2 abstract view
.subckt sky130_fd_sc_hd__and4_2 A B C D VGND VNB VPB VPWR X
.ends

* Black-box entry subcircuit for sky130_fd_sc_hd__a21oi_2 abstract view
.subckt sky130_fd_sc_hd__a21oi_2 A1 A2 B1 VGND VNB VPB VPWR Y
.ends

* Black-box entry subcircuit for sky130_fd_sc_hd__and2b_1 abstract view
.subckt sky130_fd_sc_hd__and2b_1 A_N B VGND VNB VPB VPWR X
.ends

* Black-box entry subcircuit for sky130_fd_sc_hd__a2111o_1 abstract view
.subckt sky130_fd_sc_hd__a2111o_1 A1 A2 B1 C1 D1 VGND VNB VPB VPWR X
.ends

* Black-box entry subcircuit for sky130_fd_sc_hd__or4b_4 abstract view
.subckt sky130_fd_sc_hd__or4b_4 A B C D_N VGND VNB VPB VPWR X
.ends

* Black-box entry subcircuit for sky130_fd_sc_hd__or3b_2 abstract view
.subckt sky130_fd_sc_hd__or3b_2 A B C_N VGND VNB VPB VPWR X
.ends

* Black-box entry subcircuit for sky130_fd_sc_hd__nand2_8 abstract view
.subckt sky130_fd_sc_hd__nand2_8 A B VGND VNB VPB VPWR Y
.ends

* Black-box entry subcircuit for sky130_fd_sc_hd__a31o_4 abstract view
.subckt sky130_fd_sc_hd__a31o_4 A1 A2 A3 B1 VGND VNB VPB VPWR X
.ends

* Black-box entry subcircuit for sky130_fd_sc_hd__buf_2 abstract view
.subckt sky130_fd_sc_hd__buf_2 A VGND VNB VPB VPWR X
.ends

* Black-box entry subcircuit for sky130_fd_sc_hd__a21boi_1 abstract view
.subckt sky130_fd_sc_hd__a21boi_1 A1 A2 B1_N VGND VNB VPB VPWR Y
.ends

* Black-box entry subcircuit for sky130_fd_sc_hd__clkbuf_2 abstract view
.subckt sky130_fd_sc_hd__clkbuf_2 A VGND VNB VPB VPWR X
.ends

* Black-box entry subcircuit for sky130_fd_sc_hd__mux2_2 abstract view
.subckt sky130_fd_sc_hd__mux2_2 A0 A1 S VGND VNB VPB VPWR X
.ends

* Black-box entry subcircuit for sky130_fd_sc_hd__a311o_2 abstract view
.subckt sky130_fd_sc_hd__a311o_2 A1 A2 A3 B1 C1 VGND VNB VPB VPWR X
.ends

* Black-box entry subcircuit for sky130_fd_sc_hd__and3_4 abstract view
.subckt sky130_fd_sc_hd__and3_4 A B C VGND VNB VPB VPWR X
.ends

* Black-box entry subcircuit for sky130_fd_sc_hd__nand2_4 abstract view
.subckt sky130_fd_sc_hd__nand2_4 A B VGND VNB VPB VPWR Y
.ends

* Black-box entry subcircuit for sky130_fd_sc_hd__or3b_4 abstract view
.subckt sky130_fd_sc_hd__or3b_4 A B C_N VGND VNB VPB VPWR X
.ends

* Black-box entry subcircuit for sky130_fd_sc_hd__and2_2 abstract view
.subckt sky130_fd_sc_hd__and2_2 A B VGND VNB VPB VPWR X
.ends

* Black-box entry subcircuit for sky130_fd_sc_hd__nor3b_2 abstract view
.subckt sky130_fd_sc_hd__nor3b_2 A B C_N VGND VNB VPB VPWR Y
.ends

* Black-box entry subcircuit for sky130_fd_sc_hd__nor2_4 abstract view
.subckt sky130_fd_sc_hd__nor2_4 A B VGND VNB VPB VPWR Y
.ends

* Black-box entry subcircuit for sky130_fd_sc_hd__a31oi_1 abstract view
.subckt sky130_fd_sc_hd__a31oi_1 A1 A2 A3 B1 VGND VNB VPB VPWR Y
.ends

* Black-box entry subcircuit for sky130_fd_sc_hd__or2b_2 abstract view
.subckt sky130_fd_sc_hd__or2b_2 A B_N VGND VNB VPB VPWR X
.ends

* Black-box entry subcircuit for sky130_fd_sc_hd__o21bai_2 abstract view
.subckt sky130_fd_sc_hd__o21bai_2 A1 A2 B1_N VGND VNB VPB VPWR Y
.ends

* Black-box entry subcircuit for sky130_fd_sc_hd__nand3_1 abstract view
.subckt sky130_fd_sc_hd__nand3_1 A B C VGND VNB VPB VPWR Y
.ends

* Black-box entry subcircuit for sky130_fd_sc_hd__a221oi_4 abstract view
.subckt sky130_fd_sc_hd__a221oi_4 A1 A2 B1 B2 C1 VGND VNB VPB VPWR Y
.ends

* Black-box entry subcircuit for sky130_fd_sc_hd__a211oi_1 abstract view
.subckt sky130_fd_sc_hd__a211oi_1 A1 A2 B1 C1 VGND VNB VPB VPWR Y
.ends

* Black-box entry subcircuit for sky130_fd_sc_hd__nand4b_1 abstract view
.subckt sky130_fd_sc_hd__nand4b_1 A_N B C D VGND VNB VPB VPWR Y
.ends

* Black-box entry subcircuit for sky130_fd_sc_hd__or3_4 abstract view
.subckt sky130_fd_sc_hd__or3_4 A B C VGND VNB VPB VPWR X
.ends

* Black-box entry subcircuit for sky130_fd_sc_hd__xor2_1 abstract view
.subckt sky130_fd_sc_hd__xor2_1 A B VGND VNB VPB VPWR X
.ends

* Black-box entry subcircuit for sky130_fd_sc_hd__a311oi_4 abstract view
.subckt sky130_fd_sc_hd__a311oi_4 A1 A2 A3 B1 C1 VGND VNB VPB VPWR Y
.ends

* Black-box entry subcircuit for sky130_fd_sc_hd__o41a_1 abstract view
.subckt sky130_fd_sc_hd__o41a_1 A1 A2 A3 A4 B1 VGND VNB VPB VPWR X
.ends

* Black-box entry subcircuit for sky130_fd_sc_hd__a41o_1 abstract view
.subckt sky130_fd_sc_hd__a41o_1 A1 A2 A3 A4 B1 VGND VNB VPB VPWR X
.ends

* Black-box entry subcircuit for sky130_fd_sc_hd__o31a_2 abstract view
.subckt sky130_fd_sc_hd__o31a_2 A1 A2 A3 B1 VGND VNB VPB VPWR X
.ends

* Black-box entry subcircuit for sky130_fd_sc_hd__o21ai_4 abstract view
.subckt sky130_fd_sc_hd__o21ai_4 A1 A2 B1 VGND VNB VPB VPWR Y
.ends

* Black-box entry subcircuit for sky130_fd_sc_hd__a311o_4 abstract view
.subckt sky130_fd_sc_hd__a311o_4 A1 A2 A3 B1 C1 VGND VNB VPB VPWR X
.ends

* Black-box entry subcircuit for sky130_fd_sc_hd__inv_8 abstract view
.subckt sky130_fd_sc_hd__inv_8 A VGND VNB VPB VPWR Y
.ends

* Black-box entry subcircuit for sky130_fd_sc_hd__nor3b_1 abstract view
.subckt sky130_fd_sc_hd__nor3b_1 A B C_N VGND VNB VPB VPWR Y
.ends

* Black-box entry subcircuit for sky130_fd_sc_hd__a221oi_1 abstract view
.subckt sky130_fd_sc_hd__a221oi_1 A1 A2 B1 B2 C1 VGND VNB VPB VPWR Y
.ends

* Black-box entry subcircuit for sky130_fd_sc_hd__o2bb2ai_1 abstract view
.subckt sky130_fd_sc_hd__o2bb2ai_1 A1_N A2_N B1 B2 VGND VNB VPB VPWR Y
.ends

* Black-box entry subcircuit for sky130_fd_sc_hd__and3b_2 abstract view
.subckt sky130_fd_sc_hd__and3b_2 A_N B C VGND VNB VPB VPWR X
.ends

* Black-box entry subcircuit for sky130_fd_sc_hd__and4_4 abstract view
.subckt sky130_fd_sc_hd__and4_4 A B C D VGND VNB VPB VPWR X
.ends

* Black-box entry subcircuit for sky130_fd_sc_hd__clkinv_4 abstract view
.subckt sky130_fd_sc_hd__clkinv_4 A VGND VNB VPB VPWR Y
.ends

* Black-box entry subcircuit for sky130_fd_sc_hd__inv_6 abstract view
.subckt sky130_fd_sc_hd__inv_6 A VGND VNB VPB VPWR Y
.ends

* Black-box entry subcircuit for sky130_fd_sc_hd__or4bb_2 abstract view
.subckt sky130_fd_sc_hd__or4bb_2 A B C_N D_N VGND VNB VPB VPWR X
.ends

* Black-box entry subcircuit for sky130_fd_sc_hd__o311ai_1 abstract view
.subckt sky130_fd_sc_hd__o311ai_1 A1 A2 A3 B1 C1 VGND VNB VPB VPWR Y
.ends

* Black-box entry subcircuit for sky130_fd_sc_hd__a2bb2oi_1 abstract view
.subckt sky130_fd_sc_hd__a2bb2oi_1 A1_N A2_N B1 B2 VGND VNB VPB VPWR Y
.ends

* Black-box entry subcircuit for sky130_fd_sc_hd__nand3_2 abstract view
.subckt sky130_fd_sc_hd__nand3_2 A B C VGND VNB VPB VPWR Y
.ends

* Black-box entry subcircuit for sky130_fd_sc_hd__o22ai_1 abstract view
.subckt sky130_fd_sc_hd__o22ai_1 A1 A2 B1 B2 VGND VNB VPB VPWR Y
.ends

* Black-box entry subcircuit for sky130_fd_sc_hd__a22o_4 abstract view
.subckt sky130_fd_sc_hd__a22o_4 A1 A2 B1 B2 VGND VNB VPB VPWR X
.ends

* Black-box entry subcircuit for sky130_fd_sc_hd__or4b_2 abstract view
.subckt sky130_fd_sc_hd__or4b_2 A B C D_N VGND VNB VPB VPWR X
.ends

* Black-box entry subcircuit for sky130_fd_sc_hd__nor3_4 abstract view
.subckt sky130_fd_sc_hd__nor3_4 A B C VGND VNB VPB VPWR Y
.ends

.subckt wbqspiflash VGND VPWR i_clk i_qspi_dat[0] i_qspi_dat[1] i_qspi_dat[2] i_qspi_dat[3]
+ i_wb_addr[0] i_wb_addr[10] i_wb_addr[11] i_wb_addr[12] i_wb_addr[13] i_wb_addr[14]
+ i_wb_addr[15] i_wb_addr[16] i_wb_addr[17] i_wb_addr[18] i_wb_addr[19] i_wb_addr[1]
+ i_wb_addr[2] i_wb_addr[3] i_wb_addr[4] i_wb_addr[5] i_wb_addr[6] i_wb_addr[7] i_wb_addr[8]
+ i_wb_addr[9] i_wb_ctrl_stb i_wb_cyc i_wb_data[0] i_wb_data[10] i_wb_data[11] i_wb_data[12]
+ i_wb_data[13] i_wb_data[14] i_wb_data[15] i_wb_data[16] i_wb_data[17] i_wb_data[18]
+ i_wb_data[19] i_wb_data[1] i_wb_data[20] i_wb_data[21] i_wb_data[22] i_wb_data[23]
+ i_wb_data[24] i_wb_data[25] i_wb_data[26] i_wb_data[27] i_wb_data[28] i_wb_data[29]
+ i_wb_data[2] i_wb_data[30] i_wb_data[31] i_wb_data[3] i_wb_data[4] i_wb_data[5]
+ i_wb_data[6] i_wb_data[7] i_wb_data[8] i_wb_data[9] i_wb_data_stb i_wb_we o_interrupt
+ o_qspi_cs_n o_qspi_dat[0] o_qspi_dat[1] o_qspi_dat[2] o_qspi_dat[3] o_qspi_mod[0]
+ o_qspi_mod[1] o_qspi_sck o_wb_ack o_wb_data[0] o_wb_data[10] o_wb_data[11] o_wb_data[12]
+ o_wb_data[13] o_wb_data[14] o_wb_data[15] o_wb_data[16] o_wb_data[17] o_wb_data[18]
+ o_wb_data[19] o_wb_data[1] o_wb_data[20] o_wb_data[21] o_wb_data[22] o_wb_data[23]
+ o_wb_data[24] o_wb_data[25] o_wb_data[26] o_wb_data[27] o_wb_data[28] o_wb_data[29]
+ o_wb_data[2] o_wb_data[30] o_wb_data[31] o_wb_data[3] o_wb_data[4] o_wb_data[5]
+ o_wb_data[6] o_wb_data[7] o_wb_data[8] o_wb_data[9] o_wb_stall
XTAP_188 VGND VPWR sky130_fd_sc_hd__tapvpwrvgnd_1
XTAP_177 VGND VPWR sky130_fd_sc_hd__tapvpwrvgnd_1
XTAP_199 VGND VPWR sky130_fd_sc_hd__tapvpwrvgnd_1
XFILLER_39_244 VGND VGND VPWR VPWR sky130_fd_sc_hd__fill_2
X_3155_ _3363_/CLK _3155_/D VGND VGND VPWR VPWR _3155_/Q sky130_fd_sc_hd__dfxtp_1
X_3086_ _2832_/A _3196_/Q _3085_/X _2816_/A VGND VGND VPWR VPWR _3086_/X sky130_fd_sc_hd__o211a_1
X_2106_ _2726_/A _2520_/A _1873_/B _1647_/X VGND VGND VPWR VPWR _2110_/C sky130_fd_sc_hd__a31o_2
X_2037_ _3288_/Q _2335_/C VGND VGND VPWR VPWR _2038_/D sky130_fd_sc_hd__nand2_1
XFILLER_35_472 VGND VGND VPWR VPWR sky130_fd_sc_hd__decap_4
XFILLER_22_133 VGND VGND VPWR VPWR sky130_fd_sc_hd__decap_6
XFILLER_52_29 VGND VPWR VPWR VGND sky130_ef_sc_hd__decap_12
X_2939_ _3375_/Q _2906_/X _2938_/X VGND VGND VPWR VPWR _3375_/D sky130_fd_sc_hd__a21o_1
XFILLER_77_15 VGND VGND VPWR VPWR sky130_fd_sc_hd__decap_4
XFILLER_45_225 VGND VPWR VPWR VGND sky130_ef_sc_hd__decap_12
XFILLER_26_41 VGND VGND VPWR VPWR sky130_fd_sc_hd__decap_8
XFILLER_33_409 VGND VGND VPWR VPWR sky130_fd_sc_hd__fill_2
XFILLER_26_450 VGND VGND VPWR VPWR sky130_fd_sc_hd__decap_8
XFILLER_26_472 VGND VGND VPWR VPWR sky130_fd_sc_hd__decap_4
XFILLER_13_133 VGND VGND VPWR VPWR sky130_fd_sc_hd__decap_4
XFILLER_13_122 VGND VGND VPWR VPWR sky130_fd_sc_hd__decap_4
XFILLER_26_85 VGND VGND VPWR VPWR sky130_fd_sc_hd__decap_3
XFILLER_13_166 VGND VGND VPWR VPWR sky130_fd_sc_hd__fill_2
XFILLER_13_144 VGND VGND VPWR VPWR sky130_fd_sc_hd__decap_6
XFILLER_36_269 VGND VGND VPWR VPWR sky130_fd_sc_hd__fill_1
XFILLER_17_461 VGND VGND VPWR VPWR sky130_fd_sc_hd__fill_1
XFILLER_32_486 VGND VGND VPWR VPWR sky130_fd_sc_hd__decap_4
X_2724_ _3286_/Q input50/X _2725_/S VGND VGND VPWR VPWR _3286_/D sky130_fd_sc_hd__mux2_1
XFILLER_8_192 VGND VGND VPWR VPWR sky130_fd_sc_hd__decap_4
X_2655_ _2312_/X _2433_/X _2653_/X _2654_/X VGND VGND VPWR VPWR _2655_/Y sky130_fd_sc_hd__a22oi_1
X_1606_ _1606_/A VGND VGND VPWR VPWR _3122_/A sky130_fd_sc_hd__buf_4
X_2586_ _2188_/A _1650_/Y _2585_/X _1653_/A VGND VGND VPWR VPWR _2586_/X sky130_fd_sc_hd__a31o_1
XFILLER_59_317 VGND VPWR VPWR VGND sky130_ef_sc_hd__decap_12
XFILLER_74_309 VGND VGND VPWR VPWR sky130_fd_sc_hd__decap_3
X_3207_ _3208_/CLK _3207_/D VGND VGND VPWR VPWR _3207_/Q sky130_fd_sc_hd__dfxtp_1
XFILLER_82_320 VGND VGND VPWR VPWR sky130_fd_sc_hd__decap_3
X_3138_ _3343_/CLK _3138_/D VGND VGND VPWR VPWR _3138_/Q sky130_fd_sc_hd__dfxtp_1
XFILLER_82_342 VGND VGND VPWR VPWR sky130_fd_sc_hd__decap_4
X_3069_ _3066_/X _2826_/X _2922_/A _3068_/X VGND VGND VPWR VPWR _3069_/X sky130_fd_sc_hd__a211o_1
XFILLER_42_217 VGND VGND VPWR VPWR sky130_fd_sc_hd__decap_4
XFILLER_23_420 VGND VGND VPWR VPWR sky130_fd_sc_hd__fill_1
XFILLER_23_464 VGND VGND VPWR VPWR sky130_fd_sc_hd__decap_4
XFILLER_50_272 VGND VPWR VPWR VGND sky130_ef_sc_hd__decap_12
XFILLER_10_158 VGND VGND VPWR VPWR sky130_fd_sc_hd__decap_8
XFILLER_10_136 VGND VGND VPWR VPWR sky130_fd_sc_hd__decap_4
XFILLER_2_335 VGND VGND VPWR VPWR sky130_fd_sc_hd__decap_4
XFILLER_2_379 VGND VGND VPWR VPWR sky130_fd_sc_hd__fill_1
XFILLER_77_169 VGND VGND VPWR VPWR sky130_fd_sc_hd__decap_6
XFILLER_33_206 VGND VGND VPWR VPWR sky130_fd_sc_hd__decap_4
XFILLER_33_217 VGND VGND VPWR VPWR sky130_fd_sc_hd__decap_6
XFILLER_73_386 VGND VGND VPWR VPWR sky130_fd_sc_hd__decap_6
XFILLER_14_475 VGND VGND VPWR VPWR sky130_fd_sc_hd__fill_1
XFILLER_41_261 VGND VGND VPWR VPWR sky130_fd_sc_hd__decap_4
XFILLER_41_272 VGND VGND VPWR VPWR sky130_fd_sc_hd__decap_8
XFILLER_5_162 VGND VGND VPWR VPWR sky130_fd_sc_hd__decap_6
XFILLER_5_151 VGND VGND VPWR VPWR sky130_fd_sc_hd__decap_4
X_2440_ _1964_/B _2437_/X _2451_/C _2439_/X VGND VGND VPWR VPWR _2440_/X sky130_fd_sc_hd__a31o_1
X_2371_ _2448_/B _2594_/B _2492_/B _2109_/A VGND VGND VPWR VPWR _2371_/X sky130_fd_sc_hd__a31o_1
XFILLER_78_80 VGND VGND VPWR VPWR sky130_fd_sc_hd__decap_4
XFILLER_24_228 VGND VGND VPWR VPWR sky130_fd_sc_hd__decap_4
XFILLER_32_261 VGND VGND VPWR VPWR sky130_fd_sc_hd__decap_4
XFILLER_20_445 VGND VGND VPWR VPWR sky130_fd_sc_hd__decap_3
X_2707_ _3269_/Q input31/X _2717_/S VGND VGND VPWR VPWR _3269_/D sky130_fd_sc_hd__mux2_1
X_2638_ _2616_/C _1873_/B _2641_/A _2641_/B VGND VGND VPWR VPWR _2692_/C sky130_fd_sc_hd__a211o_1
XFILLER_59_103 VGND VGND VPWR VPWR sky130_fd_sc_hd__decap_8
X_2569_ _2335_/B _3242_/Q _2574_/S VGND VGND VPWR VPWR _3242_/D sky130_fd_sc_hd__mux2_1
XFILLER_59_147 VGND VGND VPWR VPWR sky130_fd_sc_hd__decap_3
XFILLER_59_169 VGND VGND VPWR VPWR sky130_fd_sc_hd__decap_3
XFILLER_74_128 VGND VPWR VPWR VGND sky130_ef_sc_hd__decap_12
XFILLER_55_320 VGND VGND VPWR VPWR sky130_fd_sc_hd__decap_6
XFILLER_74_27 VGND VGND VPWR VPWR sky130_fd_sc_hd__fill_1
XFILLER_82_161 VGND VGND VPWR VPWR sky130_fd_sc_hd__decap_6
XFILLER_55_364 VGND VGND VPWR VPWR sky130_fd_sc_hd__decap_4
XFILLER_11_445 VGND VGND VPWR VPWR sky130_fd_sc_hd__decap_3
XFILLER_7_449 VGND VPWR VPWR VGND sky130_ef_sc_hd__decap_12
XFILLER_2_121 VGND VGND VPWR VPWR sky130_fd_sc_hd__decap_4
XFILLER_78_467 VGND VGND VPWR VPWR sky130_fd_sc_hd__decap_8
XFILLER_78_489 VGND VGND VPWR VPWR sky130_fd_sc_hd__fill_2
XFILLER_0_57 VGND VPWR VPWR VGND sky130_ef_sc_hd__decap_12
X_1940_ _3162_/Q _1939_/X _1942_/S VGND VGND VPWR VPWR _3162_/D sky130_fd_sc_hd__mux2_1
XFILLER_9_55 VGND VGND VPWR VPWR sky130_fd_sc_hd__fill_1
X_1871_ _1871_/A _1871_/B VGND VGND VPWR VPWR _1872_/D sky130_fd_sc_hd__nor2_1
XFILLER_50_3 VGND VGND VPWR VPWR sky130_fd_sc_hd__decap_4
X_2423_ _2492_/A _2492_/D _2552_/C _2613_/C VGND VGND VPWR VPWR _2423_/X sky130_fd_sc_hd__or4_1
X_2354_ _1872_/B _2352_/X _2353_/Y _2129_/X VGND VGND VPWR VPWR _2354_/Y sky130_fd_sc_hd__o31ai_1
X_2285_ _3187_/Q _2162_/X _2164_/X input23/X _2284_/X VGND VGND VPWR VPWR _2285_/X
+ sky130_fd_sc_hd__a221o_1
XFILLER_56_139 VGND VGND VPWR VPWR sky130_fd_sc_hd__fill_1
XFILLER_37_353 VGND VGND VPWR VPWR sky130_fd_sc_hd__decap_4
XFILLER_44_19 VGND VGND VPWR VPWR sky130_fd_sc_hd__decap_8
XFILLER_52_378 VGND VGND VPWR VPWR sky130_fd_sc_hd__decap_4
XFILLER_52_389 VGND VGND VPWR VPWR sky130_fd_sc_hd__decap_4
XFILLER_60_29 VGND VPWR VPWR VGND sky130_ef_sc_hd__decap_12
XFILLER_75_415 VGND VGND VPWR VPWR sky130_fd_sc_hd__decap_4
XFILLER_28_320 VGND VGND VPWR VPWR sky130_fd_sc_hd__fill_1
XFILLER_43_334 VGND VGND VPWR VPWR sky130_fd_sc_hd__fill_2
XFILLER_43_356 VGND VGND VPWR VPWR sky130_fd_sc_hd__decap_8
XFILLER_70_153 VGND VPWR VPWR VGND sky130_ef_sc_hd__decap_12
XFILLER_34_85 VGND VPWR VPWR VGND sky130_ef_sc_hd__decap_12
XFILLER_11_275 VGND VGND VPWR VPWR sky130_fd_sc_hd__decap_4
XFILLER_7_279 VGND VGND VPWR VPWR sky130_fd_sc_hd__fill_1
XTAP_507 VGND VPWR sky130_fd_sc_hd__tapvpwrvgnd_1
XFILLER_3_485 VGND VGND VPWR VPWR sky130_fd_sc_hd__decap_6
XTAP_518 VGND VPWR sky130_fd_sc_hd__tapvpwrvgnd_1
XTAP_529 VGND VPWR sky130_fd_sc_hd__tapvpwrvgnd_1
XFILLER_22_7 VGND VGND VPWR VPWR sky130_fd_sc_hd__fill_1
X_2070_ _2552_/A _2552_/B _2070_/C _2070_/D VGND VGND VPWR VPWR _2076_/D sky130_fd_sc_hd__or4_2
XFILLER_81_418 VGND VGND VPWR VPWR sky130_fd_sc_hd__decap_8
X_2972_ _2832_/A _3177_/Q _2971_/X _2816_/X VGND VGND VPWR VPWR _2972_/X sky130_fd_sc_hd__o211a_1
XFILLER_34_389 VGND VGND VPWR VPWR sky130_fd_sc_hd__decap_6
X_1923_ _3153_/Q _3150_/Q _2884_/S VGND VGND VPWR VPWR _1923_/X sky130_fd_sc_hd__mux2_1
X_1854_ _2726_/A _2324_/D VGND VGND VPWR VPWR _1854_/Y sky130_fd_sc_hd__nor2_8
X_1785_ _1785_/A _2025_/B _2023_/B VGND VGND VPWR VPWR _1785_/X sky130_fd_sc_hd__and3_1
X_2406_ _2389_/A _3199_/Q _2389_/C VGND VGND VPWR VPWR _2406_/X sky130_fd_sc_hd__a21bo_1
X_3386_ _3388_/CLK _3386_/D VGND VGND VPWR VPWR _3386_/Q sky130_fd_sc_hd__dfxtp_1
X_2337_ _2436_/C _2492_/A _2337_/C VGND VGND VPWR VPWR _2341_/B sky130_fd_sc_hd__and3_1
XFILLER_57_426 VGND VGND VPWR VPWR sky130_fd_sc_hd__decap_8
X_2268_ _2733_/A _2090_/X _2267_/X _2247_/D VGND VGND VPWR VPWR _2268_/X sky130_fd_sc_hd__a31o_1
XFILLER_44_109 VGND VPWR VPWR VGND sky130_ef_sc_hd__decap_12