* NGSPICE file created from wbqspiflash.ext - technology: sky130A

* Black-box entry subcircuit for sky130_fd_sc_hd__tapvpwrvgnd_1 abstract view
.subckt sky130_fd_sc_hd__tapvpwrvgnd_1 VGND VPWR
.ends

* Black-box entry subcircuit for sky130_fd_sc_hd__decap_4 abstract view
.subckt sky130_fd_sc_hd__decap_4 VGND VNB VPB VPWR
.ends

* Black-box entry subcircuit for sky130_fd_sc_hd__mux2_1 abstract view
.subckt sky130_fd_sc_hd__mux2_1 A0 A1 S VGND VNB VPB VPWR X
.ends

* Black-box entry subcircuit for sky130_fd_sc_hd__a21oi_1 abstract view
.subckt sky130_fd_sc_hd__a21oi_1 A1 A2 B1 VGND VNB VPB VPWR Y
.ends

* Black-box entry subcircuit for sky130_fd_sc_hd__nor2_1 abstract view
.subckt sky130_fd_sc_hd__nor2_1 A B VGND VNB VPB VPWR Y
.ends

* Black-box entry subcircuit for sky130_fd_sc_hd__nand2_1 abstract view
.subckt sky130_fd_sc_hd__nand2_1 A B VGND VNB VPB VPWR Y
.ends

* Black-box entry subcircuit for sky130_ef_sc_hd__decap_12 abstract view
.subckt sky130_ef_sc_hd__decap_12 VGND VPWR VPB VNB
.ends

* Black-box entry subcircuit for sky130_fd_sc_hd__decap_8 abstract view
.subckt sky130_fd_sc_hd__decap_8 VGND VNB VPB VPWR
.ends

* Black-box entry subcircuit for sky130_fd_sc_hd__fill_1 abstract view
.subckt sky130_fd_sc_hd__fill_1 VGND VNB VPB VPWR
.ends

* Black-box entry subcircuit for sky130_fd_sc_hd__dfxtp_1 abstract view
.subckt sky130_fd_sc_hd__dfxtp_1 CLK D VGND VNB VPB VPWR Q
.ends

* Black-box entry subcircuit for sky130_fd_sc_hd__inv_2 abstract view
.subckt sky130_fd_sc_hd__inv_2 A VGND VNB VPB VPWR Y
.ends

* Black-box entry subcircuit for sky130_fd_sc_hd__or3_1 abstract view
.subckt sky130_fd_sc_hd__or3_1 A B C VGND VNB VPB VPWR X
.ends

* Black-box entry subcircuit for sky130_fd_sc_hd__o21ai_1 abstract view
.subckt sky130_fd_sc_hd__o21ai_1 A1 A2 B1 VGND VNB VPB VPWR Y
.ends

* Black-box entry subcircuit for sky130_fd_sc_hd__nand2_4 abstract view
.subckt sky130_fd_sc_hd__nand2_4 A B VGND VNB VPB VPWR Y
.ends

* Black-box entry subcircuit for sky130_fd_sc_hd__fill_2 abstract view
.subckt sky130_fd_sc_hd__fill_2 VGND VNB VPB VPWR
.ends

* Black-box entry subcircuit for sky130_fd_sc_hd__nand3b_1 abstract view
.subckt sky130_fd_sc_hd__nand3b_1 A_N B C VGND VNB VPB VPWR Y
.ends

* Black-box entry subcircuit for sky130_fd_sc_hd__decap_3 abstract view
.subckt sky130_fd_sc_hd__decap_3 VGND VNB VPB VPWR
.ends

* Black-box entry subcircuit for sky130_fd_sc_hd__a31o_1 abstract view
.subckt sky130_fd_sc_hd__a31o_1 A1 A2 A3 B1 VGND VNB VPB VPWR X
.ends

* Black-box entry subcircuit for sky130_fd_sc_hd__decap_6 abstract view
.subckt sky130_fd_sc_hd__decap_6 VGND VNB VPB VPWR
.ends

* Black-box entry subcircuit for sky130_fd_sc_hd__dfxtp_4 abstract view
.subckt sky130_fd_sc_hd__dfxtp_4 CLK D VGND VNB VPB VPWR Q
.ends

* Black-box entry subcircuit for sky130_fd_sc_hd__a32o_1 abstract view
.subckt sky130_fd_sc_hd__a32o_1 A1 A2 A3 B1 B2 VGND VNB VPB VPWR X
.ends

* Black-box entry subcircuit for sky130_fd_sc_hd__nand2_8 abstract view
.subckt sky130_fd_sc_hd__nand2_8 A B VGND VNB VPB VPWR Y
.ends

* Black-box entry subcircuit for sky130_fd_sc_hd__nor2_2 abstract view
.subckt sky130_fd_sc_hd__nor2_2 A B VGND VNB VPB VPWR Y
.ends

* Black-box entry subcircuit for sky130_fd_sc_hd__or2_1 abstract view
.subckt sky130_fd_sc_hd__or2_1 A B VGND VNB VPB VPWR X
.ends

* Black-box entry subcircuit for sky130_fd_sc_hd__a211o_1 abstract view
.subckt sky130_fd_sc_hd__a211o_1 A1 A2 B1 C1 VGND VNB VPB VPWR X
.ends

* Black-box entry subcircuit for sky130_fd_sc_hd__dfxtp_2 abstract view
.subckt sky130_fd_sc_hd__dfxtp_2 CLK D VGND VNB VPB VPWR Q
.ends

* Black-box entry subcircuit for sky130_fd_sc_hd__clkinv_2 abstract view
.subckt sky130_fd_sc_hd__clkinv_2 A VGND VNB VPB VPWR Y
.ends

* Black-box entry subcircuit for sky130_fd_sc_hd__and2b_1 abstract view
.subckt sky130_fd_sc_hd__and2b_1 A_N B VGND VNB VPB VPWR X
.ends

* Black-box entry subcircuit for sky130_fd_sc_hd__and2_1 abstract view
.subckt sky130_fd_sc_hd__and2_1 A B VGND VNB VPB VPWR X
.ends

* Black-box entry subcircuit for sky130_fd_sc_hd__a221o_1 abstract view
.subckt sky130_fd_sc_hd__a221o_1 A1 A2 B1 B2 C1 VGND VNB VPB VPWR X
.ends

* Black-box entry subcircuit for sky130_fd_sc_hd__a22o_1 abstract view
.subckt sky130_fd_sc_hd__a22o_1 A1 A2 B1 B2 VGND VNB VPB VPWR X
.ends

* Black-box entry subcircuit for sky130_fd_sc_hd__diode_2 abstract view
.subckt sky130_fd_sc_hd__diode_2 DIODE VGND VNB VPB VPWR
.ends

* Black-box entry subcircuit for sky130_fd_sc_hd__and3_1 abstract view
.subckt sky130_fd_sc_hd__and3_1 A B C VGND VNB VPB VPWR X
.ends

* Black-box entry subcircuit for sky130_fd_sc_hd__nand3_1 abstract view
.subckt sky130_fd_sc_hd__nand3_1 A B C VGND VNB VPB VPWR Y
.ends

* Black-box entry subcircuit for sky130_fd_sc_hd__a311oi_1 abstract view
.subckt sky130_fd_sc_hd__a311oi_1 A1 A2 A3 B1 C1 VGND VNB VPB VPWR Y
.ends

* Black-box entry subcircuit for sky130_fd_sc_hd__and4_1 abstract view
.subckt sky130_fd_sc_hd__and4_1 A B C D VGND VNB VPB VPWR X
.ends

* Black-box entry subcircuit for sky130_fd_sc_hd__a311o_1 abstract view
.subckt sky130_fd_sc_hd__a311o_1 A1 A2 A3 B1 C1 VGND VNB VPB VPWR X
.ends

* Black-box entry subcircuit for sky130_fd_sc_hd__clkbuf_1 abstract view
.subckt sky130_fd_sc_hd__clkbuf_1 A VGND VNB VPB VPWR X
.ends

* Black-box entry subcircuit for sky130_fd_sc_hd__o2111a_1 abstract view
.subckt sky130_fd_sc_hd__o2111a_1 A1 A2 B1 C1 D1 VGND VNB VPB VPWR X
.ends

* Black-box entry subcircuit for sky130_fd_sc_hd__and4b_1 abstract view
.subckt sky130_fd_sc_hd__and4b_1 A_N B C D VGND VNB VPB VPWR X
.ends

* Black-box entry subcircuit for sky130_fd_sc_hd__o32a_1 abstract view
.subckt sky130_fd_sc_hd__o32a_1 A1 A2 A3 B1 B2 VGND VNB VPB VPWR X
.ends

* Black-box entry subcircuit for sky130_fd_sc_hd__buf_6 abstract view
.subckt sky130_fd_sc_hd__buf_6 A VGND VNB VPB VPWR X
.ends

* Black-box entry subcircuit for sky130_fd_sc_hd__a2111o_1 abstract view
.subckt sky130_fd_sc_hd__a2111o_1 A1 A2 B1 C1 D1 VGND VNB VPB VPWR X
.ends

* Black-box entry subcircuit for sky130_fd_sc_hd__clkbuf_16 abstract view
.subckt sky130_fd_sc_hd__clkbuf_16 A VGND VNB VPB VPWR X
.ends

* Black-box entry subcircuit for sky130_fd_sc_hd__o21a_1 abstract view
.subckt sky130_fd_sc_hd__o21a_1 A1 A2 B1 VGND VNB VPB VPWR X
.ends

* Black-box entry subcircuit for sky130_fd_sc_hd__a41o_1 abstract view
.subckt sky130_fd_sc_hd__a41o_1 A1 A2 A3 A4 B1 VGND VNB VPB VPWR X
.ends

* Black-box entry subcircuit for sky130_fd_sc_hd__or4_1 abstract view
.subckt sky130_fd_sc_hd__or4_1 A B C D VGND VNB VPB VPWR X
.ends

* Black-box entry subcircuit for sky130_fd_sc_hd__nor3_1 abstract view
.subckt sky130_fd_sc_hd__nor3_1 A B C VGND VNB VPB VPWR Y
.ends

* Black-box entry subcircuit for sky130_fd_sc_hd__a21o_1 abstract view
.subckt sky130_fd_sc_hd__a21o_1 A1 A2 B1 VGND VNB VPB VPWR X
.ends

* Black-box entry subcircuit for sky130_fd_sc_hd__or2b_1 abstract view
.subckt sky130_fd_sc_hd__or2b_1 A B_N VGND VNB VPB VPWR X
.ends

* Black-box entry subcircuit for sky130_fd_sc_hd__nor2_8 abstract view
.subckt sky130_fd_sc_hd__nor2_8 A B VGND VNB VPB VPWR Y
.ends

* Black-box entry subcircuit for sky130_fd_sc_hd__nand2_2 abstract view
.subckt sky130_fd_sc_hd__nand2_2 A B VGND VNB VPB VPWR Y
.ends

* Black-box entry subcircuit for sky130_fd_sc_hd__nor2_4 abstract view
.subckt sky130_fd_sc_hd__nor2_4 A B VGND VNB VPB VPWR Y
.ends

* Black-box entry subcircuit for sky130_fd_sc_hd__a221oi_1 abstract view
.subckt sky130_fd_sc_hd__a221oi_1 A1 A2 B1 B2 C1 VGND VNB VPB VPWR Y
.ends

* Black-box entry subcircuit for sky130_fd_sc_hd__o221a_1 abstract view
.subckt sky130_fd_sc_hd__o221a_1 A1 A2 B1 B2 C1 VGND VNB VPB VPWR X
.ends

* Black-box entry subcircuit for sky130_fd_sc_hd__o211a_1 abstract view
.subckt sky130_fd_sc_hd__o211a_1 A1 A2 B1 C1 VGND VNB VPB VPWR X
.ends

* Black-box entry subcircuit for sky130_fd_sc_hd__xor2_1 abstract view
.subckt sky130_fd_sc_hd__xor2_1 A B VGND VNB VPB VPWR X
.ends

* Black-box entry subcircuit for sky130_fd_sc_hd__a21boi_1 abstract view
.subckt sky130_fd_sc_hd__a21boi_1 A1 A2 B1_N VGND VNB VPB VPWR Y
.ends

* Black-box entry subcircuit for sky130_fd_sc_hd__clkinv_8 abstract view
.subckt sky130_fd_sc_hd__clkinv_8 A VGND VNB VPB VPWR Y
.ends

* Black-box entry subcircuit for sky130_fd_sc_hd__o211ai_1 abstract view
.subckt sky130_fd_sc_hd__o211ai_1 A1 A2 B1 C1 VGND VNB VPB VPWR Y
.ends

* Black-box entry subcircuit for sky130_fd_sc_hd__o31a_1 abstract view
.subckt sky130_fd_sc_hd__o31a_1 A1 A2 A3 B1 VGND VNB VPB VPWR X
.ends

* Black-box entry subcircuit for sky130_fd_sc_hd__a2bb2o_1 abstract view
.subckt sky130_fd_sc_hd__a2bb2o_1 A1_N A2_N B1 B2 VGND VNB VPB VPWR X
.ends

* Black-box entry subcircuit for sky130_fd_sc_hd__a21bo_1 abstract view
.subckt sky130_fd_sc_hd__a21bo_1 A1 A2 B1_N VGND VNB VPB VPWR X
.ends

* Black-box entry subcircuit for sky130_fd_sc_hd__a2111oi_1 abstract view
.subckt sky130_fd_sc_hd__a2111oi_1 A1 A2 B1 C1 D1 VGND VNB VPB VPWR Y
.ends

* Black-box entry subcircuit for sky130_fd_sc_hd__o21bai_1 abstract view
.subckt sky130_fd_sc_hd__o21bai_1 A1 A2 B1_N VGND VNB VPB VPWR Y
.ends

* Black-box entry subcircuit for sky130_fd_sc_hd__o22a_1 abstract view
.subckt sky130_fd_sc_hd__o22a_1 A1 A2 B1 B2 VGND VNB VPB VPWR X
.ends

* Black-box entry subcircuit for sky130_fd_sc_hd__a22oi_1 abstract view
.subckt sky130_fd_sc_hd__a22oi_1 A1 A2 B1 B2 VGND VNB VPB VPWR Y
.ends

* Black-box entry subcircuit for sky130_fd_sc_hd__o41a_1 abstract view
.subckt sky130_fd_sc_hd__o41a_1 A1 A2 A3 A4 B1 VGND VNB VPB VPWR X
.ends

* Black-box entry subcircuit for sky130_fd_sc_hd__o311a_1 abstract view
.subckt sky130_fd_sc_hd__o311a_1 A1 A2 A3 B1 C1 VGND VNB VPB VPWR X
.ends

* Black-box entry subcircuit for sky130_fd_sc_hd__buf_12 abstract view
.subckt sky130_fd_sc_hd__buf_12 A VGND VNB VPB VPWR X
.ends

* Black-box entry subcircuit for sky130_fd_sc_hd__clkbuf_2 abstract view
.subckt sky130_fd_sc_hd__clkbuf_2 A VGND VNB VPB VPWR X
.ends

* Black-box entry subcircuit for sky130_fd_sc_hd__or3b_1 abstract view
.subckt sky130_fd_sc_hd__or3b_1 A B C_N VGND VNB VPB VPWR X
.ends

* Black-box entry subcircuit for sky130_fd_sc_hd__o21ai_2 abstract view
.subckt sky130_fd_sc_hd__o21ai_2 A1 A2 B1 VGND VNB VPB VPWR Y
.ends

* Black-box entry subcircuit for sky130_fd_sc_hd__or2_2 abstract view
.subckt sky130_fd_sc_hd__or2_2 A B VGND VNB VPB VPWR X
.ends

* Black-box entry subcircuit for sky130_fd_sc_hd__a31oi_1 abstract view
.subckt sky130_fd_sc_hd__a31oi_1 A1 A2 A3 B1 VGND VNB VPB VPWR Y
.ends

* Black-box entry subcircuit for sky130_fd_sc_hd__o2111ai_1 abstract view
.subckt sky130_fd_sc_hd__o2111ai_1 A1 A2 B1 C1 D1 VGND VNB VPB VPWR Y
.ends

* Black-box entry subcircuit for sky130_fd_sc_hd__nand3_2 abstract view
.subckt sky130_fd_sc_hd__nand3_2 A B C VGND VNB VPB VPWR Y
.ends

* Black-box entry subcircuit for sky130_fd_sc_hd__inv_4 abstract view
.subckt sky130_fd_sc_hd__inv_4 A VGND VNB VPB VPWR Y
.ends

* Black-box entry subcircuit for sky130_fd_sc_hd__xnor2_1 abstract view
.subckt sky130_fd_sc_hd__xnor2_1 A B VGND VNB VPB VPWR Y
.ends

* Black-box entry subcircuit for sky130_fd_sc_hd__buf_4 abstract view
.subckt sky130_fd_sc_hd__buf_4 A VGND VNB VPB VPWR X
.ends

* Black-box entry subcircuit for sky130_fd_sc_hd__a211oi_1 abstract view
.subckt sky130_fd_sc_hd__a211oi_1 A1 A2 B1 C1 VGND VNB VPB VPWR Y
.ends

* Black-box entry subcircuit for sky130_fd_sc_hd__and2_2 abstract view
.subckt sky130_fd_sc_hd__and2_2 A B VGND VNB VPB VPWR X
.ends

* Black-box entry subcircuit for sky130_fd_sc_hd__dlymetal6s2s_1 abstract view
.subckt sky130_fd_sc_hd__dlymetal6s2s_1 A VGND VNB VPB VPWR X
.ends

* Black-box entry subcircuit for sky130_fd_sc_hd__inv_16 abstract view
.subckt sky130_fd_sc_hd__inv_16 A VGND VNB VPB VPWR Y
.ends

* Black-box entry subcircuit for sky130_fd_sc_hd__nor3_2 abstract view
.subckt sky130_fd_sc_hd__nor3_2 A B C VGND VNB VPB VPWR Y
.ends

* Black-box entry subcircuit for sky130_fd_sc_hd__clkinv_4 abstract view
.subckt sky130_fd_sc_hd__clkinv_4 A VGND VNB VPB VPWR Y
.ends

* Black-box entry subcircuit for sky130_fd_sc_hd__o2bb2a_1 abstract view
.subckt sky130_fd_sc_hd__o2bb2a_1 A1_N A2_N B1 B2 VGND VNB VPB VPWR X
.ends

* Black-box entry subcircuit for sky130_fd_sc_hd__o31ai_1 abstract view
.subckt sky130_fd_sc_hd__o31ai_1 A1 A2 A3 B1 VGND VNB VPB VPWR Y
.ends

* Black-box entry subcircuit for sky130_fd_sc_hd__buf_2 abstract view
.subckt sky130_fd_sc_hd__buf_2 A VGND VNB VPB VPWR X
.ends

* Black-box entry subcircuit for sky130_fd_sc_hd__nor2b_1 abstract view
.subckt sky130_fd_sc_hd__nor2b_1 A B_N VGND VNB VPB VPWR Y
.ends

* Black-box entry subcircuit for sky130_fd_sc_hd__nand2b_1 abstract view
.subckt sky130_fd_sc_hd__nand2b_1 A_N B VGND VNB VPB VPWR Y
.ends

* Black-box entry subcircuit for sky130_fd_sc_hd__buf_8 abstract view
.subckt sky130_fd_sc_hd__buf_8 A VGND VNB VPB VPWR X
.ends

* Black-box entry subcircuit for sky130_fd_sc_hd__and3b_1 abstract view
.subckt sky130_fd_sc_hd__and3b_1 A_N B C VGND VNB VPB VPWR X
.ends

* Black-box entry subcircuit for sky130_fd_sc_hd__nor3b_1 abstract view
.subckt sky130_fd_sc_hd__nor3b_1 A B C_N VGND VNB VPB VPWR Y
.ends

* Black-box entry subcircuit for sky130_fd_sc_hd__inv_6 abstract view
.subckt sky130_fd_sc_hd__inv_6 A VGND VNB VPB VPWR Y
.ends

* Black-box entry subcircuit for sky130_fd_sc_hd__clkbuf_4 abstract view
.subckt sky130_fd_sc_hd__clkbuf_4 A VGND VNB VPB VPWR X
.ends

* Black-box entry subcircuit for sky130_fd_sc_hd__o21ba_1 abstract view
.subckt sky130_fd_sc_hd__o21ba_1 A1 A2 B1_N VGND VNB VPB VPWR X
.ends

* Black-box entry subcircuit for sky130_fd_sc_hd__o2bb2ai_1 abstract view
.subckt sky130_fd_sc_hd__o2bb2ai_1 A1_N A2_N B1 B2 VGND VNB VPB VPWR Y
.ends

* Black-box entry subcircuit for sky130_fd_sc_hd__or4b_1 abstract view
.subckt sky130_fd_sc_hd__or4b_1 A B C D_N VGND VNB VPB VPWR X
.ends

* Black-box entry subcircuit for sky130_fd_sc_hd__and3_2 abstract view
.subckt sky130_fd_sc_hd__and3_2 A B C VGND VNB VPB VPWR X
.ends

* Black-box entry subcircuit for sky130_fd_sc_hd__inv_8 abstract view
.subckt sky130_fd_sc_hd__inv_8 A VGND VNB VPB VPWR Y
.ends

* Black-box entry subcircuit for sky130_fd_sc_hd__a311o_2 abstract view
.subckt sky130_fd_sc_hd__a311o_2 A1 A2 A3 B1 C1 VGND VNB VPB VPWR X
.ends

* Black-box entry subcircuit for sky130_fd_sc_hd__and4_2 abstract view
.subckt sky130_fd_sc_hd__and4_2 A B C D VGND VNB VPB VPWR X
.ends

.subckt wbqspiflash VGND VPWR i_clk i_qspi_dat[0] i_qspi_dat[1] i_qspi_dat[2] i_qspi_dat[3]
+ i_wb_addr[0] i_wb_addr[10] i_wb_addr[11] i_wb_addr[12] i_wb_addr[13] i_wb_addr[14]
+ i_wb_addr[15] i_wb_addr[16] i_wb_addr[17] i_wb_addr[18] i_wb_addr[19] i_wb_addr[1]
+ i_wb_addr[2] i_wb_addr[3] i_wb_addr[4] i_wb_addr[5] i_wb_addr[6] i_wb_addr[7] i_wb_addr[8]
+ i_wb_addr[9] i_wb_ctrl_stb i_wb_cyc i_wb_data[0] i_wb_data[10] i_wb_data[11] i_wb_data[12]
+ i_wb_data[13] i_wb_data[14] i_wb_data[15] i_wb_data[16] i_wb_data[17] i_wb_data[18]
+ i_wb_data[19] i_wb_data[1] i_wb_data[20] i_wb_data[21] i_wb_data[22] i_wb_data[23]
+ i_wb_data[24] i_wb_data[25] i_wb_data[26] i_wb_data[27] i_wb_data[28] i_wb_data[29]
+ i_wb_data[2] i_wb_data[30] i_wb_data[31] i_wb_data[3] i_wb_data[4] i_wb_data[5]
+ i_wb_data[6] i_wb_data[7] i_wb_data[8] i_wb_data[9] i_wb_data_stb i_wb_we o_interrupt
+ o_qspi_cs_n o_qspi_dat[0] o_qspi_dat[1] o_qspi_dat[2] o_qspi_dat[3] o_qspi_mod[0]
+ o_qspi_mod[1] o_qspi_sck o_wb_ack o_wb_data[0] o_wb_data[10] o_wb_data[11] o_wb_data[12]
+ o_wb_data[13] o_wb_data[14] o_wb_data[15] o_wb_data[16] o_wb_data[17] o_wb_data[18]
+ o_wb_data[19] o_wb_data[1] o_wb_data[20] o_wb_data[21] o_wb_data[22] o_wb_data[23]
+ o_wb_data[24] o_wb_data[25] o_wb_data[26] o_wb_data[27] o_wb_data[28] o_wb_data[29]
+ o_wb_data[2] o_wb_data[30] o_wb_data[31] o_wb_data[3] o_wb_data[4] o_wb_data[5]
+ o_wb_data[6] o_wb_data[7] o_wb_data[8] o_wb_data[9] o_wb_stall
XTAP_177 VGND VPWR sky130_fd_sc_hd__tapvpwrvgnd_1
XTAP_188 VGND VPWR sky130_fd_sc_hd__tapvpwrvgnd_1
XTAP_199 VGND VPWR sky130_fd_sc_hd__tapvpwrvgnd_1
XFILLER_39_211 VGND VGND VPWR VPWR sky130_fd_sc_hd__decap_4
X_3155_ input31/X _3765_/Q _3165_/S VGND VGND VPWR VPWR _3765_/D sky130_fd_sc_hd__mux2_1
XFILLER_39_266 VGND VGND VPWR VPWR sky130_fd_sc_hd__decap_4
XFILLER_54_203 VGND VGND VPWR VPWR sky130_fd_sc_hd__decap_4
X_3086_ _3141_/S _3747_/Q _2941_/A VGND VGND VPWR VPWR _3087_/B sky130_fd_sc_hd__a21oi_1
XFILLER_54_236 VGND VGND VPWR VPWR sky130_fd_sc_hd__decap_4
X_2106_ _2106_/A _2106_/B VGND VGND VPWR VPWR _2107_/D sky130_fd_sc_hd__nor2_1
X_2037_ _2037_/A _2549_/B VGND VGND VPWR VPWR _2040_/A sky130_fd_sc_hd__nand2_1
XFILLER_54_269 VGND VPWR VPWR VGND sky130_ef_sc_hd__decap_12
XFILLER_52_18 VGND VGND VPWR VPWR sky130_fd_sc_hd__decap_8
XFILLER_52_29 VGND VPWR VPWR VGND sky130_ef_sc_hd__decap_12
XFILLER_22_166 VGND VGND VPWR VPWR sky130_fd_sc_hd__decap_8
X_2939_ _2940_/B _2940_/A VGND VGND VPWR VPWR _2941_/B sky130_fd_sc_hd__nor2_1
XFILLER_22_188 VGND VGND VPWR VPWR sky130_fd_sc_hd__decap_8
XFILLER_45_258 VGND VGND VPWR VPWR sky130_fd_sc_hd__decap_4
XFILLER_60_217 VGND VGND VPWR VPWR sky130_fd_sc_hd__fill_1
XFILLER_13_144 VGND VGND VPWR VPWR sky130_fd_sc_hd__decap_8
XFILLER_13_199 VGND VGND VPWR VPWR sky130_fd_sc_hd__decap_4
XFILLER_5_321 VGND VGND VPWR VPWR sky130_fd_sc_hd__decap_4
XFILLER_3_34 VGND VGND VPWR VPWR sky130_fd_sc_hd__fill_1
XFILLER_36_258 VGND VPWR VPWR VGND sky130_ef_sc_hd__decap_12
XFILLER_17_461 VGND VGND VPWR VPWR sky130_fd_sc_hd__decap_4
X_3842_ _3842_/CLK _3842_/D VGND VGND VPWR VPWR _3842_/Q sky130_fd_sc_hd__dfxtp_1
XFILLER_32_475 VGND VGND VPWR VPWR sky130_fd_sc_hd__fill_1
X_3773_ _3774_/CLK _3773_/D VGND VGND VPWR VPWR _3773_/Q sky130_fd_sc_hd__dfxtp_1
X_2724_ _2724_/A VGND VGND VPWR VPWR _2724_/Y sky130_fd_sc_hd__inv_2
X_2655_ _2655_/A _2668_/B _2721_/B VGND VGND VPWR VPWR _2655_/X sky130_fd_sc_hd__or3_1
X_2586_ _3474_/B _2559_/Y _2585_/Y VGND VGND VPWR VPWR _3679_/D sky130_fd_sc_hd__o21ai_1
XFILLER_67_361 VGND VPWR VPWR VGND sky130_ef_sc_hd__decap_12
X_3207_ _3207_/A _3207_/B VGND VGND VPWR VPWR _3366_/S sky130_fd_sc_hd__nand2_4
XFILLER_82_320 VGND VGND VPWR VPWR sky130_fd_sc_hd__fill_2
XFILLER_27_203 VGND VGND VPWR VPWR sky130_fd_sc_hd__decap_4
XFILLER_27_225 VGND VGND VPWR VPWR sky130_fd_sc_hd__fill_1
X_3138_ _3091_/X _3138_/B _3138_/C VGND VGND VPWR VPWR _3138_/Y sky130_fd_sc_hd__nand3b_1
X_3069_ _3204_/A _3068_/B _2820_/B VGND VGND VPWR VPWR _3069_/Y sky130_fd_sc_hd__a21oi_1
XFILLER_27_269 VGND VGND VPWR VPWR sky130_fd_sc_hd__fill_1
XFILLER_42_239 VGND VGND VPWR VPWR sky130_fd_sc_hd__fill_1
XFILLER_50_272 VGND VGND VPWR VPWR sky130_fd_sc_hd__decap_4
XFILLER_10_136 VGND VGND VPWR VPWR sky130_fd_sc_hd__decap_4
XFILLER_6_107 VGND VGND VPWR VPWR sky130_fd_sc_hd__fill_1
XFILLER_12_76 VGND VGND VPWR VPWR sky130_fd_sc_hd__decap_8
XFILLER_77_169 VGND VPWR VPWR VGND sky130_ef_sc_hd__decap_12
XFILLER_37_51 VGND VGND VPWR VPWR sky130_fd_sc_hd__decap_4
XFILLER_58_361 VGND VGND VPWR VPWR sky130_fd_sc_hd__decap_3
XFILLER_18_236 VGND VPWR VPWR VGND sky130_ef_sc_hd__decap_12
XFILLER_33_206 VGND VGND VPWR VPWR sky130_fd_sc_hd__decap_4
XFILLER_26_280 VGND VGND VPWR VPWR sky130_fd_sc_hd__decap_8
XFILLER_53_72 VGND VGND VPWR VPWR sky130_fd_sc_hd__fill_1
X_2440_ _1880_/Y _3190_/B _2438_/Y _2439_/X VGND VGND VPWR VPWR _2820_/C sky130_fd_sc_hd__a31o_1
X_2371_ _2371_/A VGND VGND VPWR VPWR _2833_/B sky130_fd_sc_hd__inv_2
XFILLER_78_80 VGND VGND VPWR VPWR sky130_fd_sc_hd__decap_4
XFILLER_56_309 VGND VGND VPWR VPWR sky130_fd_sc_hd__fill_1
XFILLER_49_383 VGND VGND VPWR VPWR sky130_fd_sc_hd__decap_8
XFILLER_24_206 VGND VGND VPWR VPWR sky130_fd_sc_hd__decap_6
XFILLER_20_401 VGND VPWR VPWR VGND sky130_ef_sc_hd__decap_12
XFILLER_32_283 VGND VGND VPWR VPWR sky130_fd_sc_hd__fill_1
X_3825_ _3901_/CLK _3825_/D VGND VGND VPWR VPWR _3825_/Q sky130_fd_sc_hd__dfxtp_1
X_3756_ _3759_/CLK _3756_/D VGND VGND VPWR VPWR _3756_/Q sky130_fd_sc_hd__dfxtp_4
X_2707_ _2839_/A _2435_/A _3689_/Q _2175_/A _2720_/B VGND VGND VPWR VPWR _2708_/A
+ sky130_fd_sc_hd__a32o_1
X_3687_ _3687_/CLK _3687_/D VGND VGND VPWR VPWR _3687_/Q sky130_fd_sc_hd__dfxtp_1
X_2638_ _2638_/A _2668_/B _2721_/B VGND VGND VPWR VPWR _2638_/X sky130_fd_sc_hd__or3_1
X_2569_ _2569_/A _3122_/B VGND VGND VPWR VPWR _2569_/Y sky130_fd_sc_hd__nand2_1
XFILLER_74_38 VGND VGND VPWR VPWR sky130_fd_sc_hd__decap_8
XFILLER_23_261 VGND VGND VPWR VPWR sky130_fd_sc_hd__decap_6
XFILLER_23_64 VGND VGND VPWR VPWR sky130_fd_sc_hd__fill_1
XFILLER_7_438 VGND VGND VPWR VPWR sky130_fd_sc_hd__decap_8
XFILLER_23_97 VGND VGND VPWR VPWR sky130_fd_sc_hd__decap_4
XFILLER_2_132 VGND VGND VPWR VPWR sky130_fd_sc_hd__fill_1
XFILLER_38_309 VGND VGND VPWR VPWR sky130_fd_sc_hd__decap_6
XFILLER_48_83 VGND VGND VPWR VPWR sky130_fd_sc_hd__fill_1
XFILLER_0_57 VGND VGND VPWR VPWR sky130_fd_sc_hd__decap_8
XFILLER_61_312 VGND VPWR VPWR VGND sky130_ef_sc_hd__decap_12
XFILLER_14_272 VGND VPWR VPWR VGND sky130_ef_sc_hd__decap_12
XFILLER_14_261 VGND VGND VPWR VPWR sky130_fd_sc_hd__decap_4
XFILLER_9_44 VGND VGND VPWR VPWR sky130_fd_sc_hd__decap_4
X_1940_ _2113_/A _2187_/B VGND VGND VPWR VPWR _3131_/B sky130_fd_sc_hd__nand2_8
X_1871_ _3750_/Q _3749_/Q VGND VGND VPWR VPWR _2439_/B sky130_fd_sc_hd__nor2_2
X_3610_ _3902_/Q _3615_/A VGND VGND VPWR VPWR _3611_/B sky130_fd_sc_hd__or2_1
X_3541_ _3556_/A _3687_/Q _3540_/X _3406_/Y VGND VGND VPWR VPWR _3541_/X sky130_fd_sc_hd__a211o_1
X_3472_ _3474_/B _3553_/A _3411_/A VGND VGND VPWR VPWR _3472_/Y sky130_fd_sc_hd__a21oi_1
XFILLER_50_3 VGND VGND VPWR VPWR sky130_fd_sc_hd__decap_4
X_2423_ _2821_/A _2423_/B VGND VGND VPWR VPWR _2423_/Y sky130_fd_sc_hd__nand2_1
X_2354_ _2943_/B _2943_/A VGND VGND VPWR VPWR _2355_/B sky130_fd_sc_hd__nand2_1
X_2285_ _2285_/A _3190_/B VGND VGND VPWR VPWR _2286_/A sky130_fd_sc_hd__nand2_1
XFILLER_52_301 VGND VGND VPWR VPWR sky130_fd_sc_hd__decap_6
XFILLER_64_150 VGND VPWR VPWR VGND sky130_ef_sc_hd__decap_12
XFILLER_37_386 VGND VGND VPWR VPWR sky130_fd_sc_hd__decap_6
X_3808_ _3842_/CLK _3808_/D VGND VGND VPWR VPWR _3808_/Q sky130_fd_sc_hd__dfxtp_1
XFILLER_20_275 VGND VGND VPWR VPWR sky130_fd_sc_hd__fill_1
XFILLER_60_29 VGND VGND VPWR VPWR sky130_fd_sc_hd__decap_6
X_3739_ _3860_/CLK _3739_/D VGND VGND VPWR VPWR _3739_/Q sky130_fd_sc_hd__dfxtp_2
XFILLER_47_128 VGND VGND VPWR VPWR sky130_fd_sc_hd__decap_6
XFILLER_34_85 VGND VPWR VPWR VGND sky130_ef_sc_hd__decap_12
XFILLER_3_441 VGND VGND VPWR VPWR sky130_fd_sc_hd__decap_6
XTAP_507 VGND VPWR sky130_fd_sc_hd__tapvpwrvgnd_1
XTAP_518 VGND VPWR sky130_fd_sc_hd__tapvpwrvgnd_1
XTAP_529 VGND VPWR sky130_fd_sc_hd__tapvpwrvgnd_1
XFILLER_59_71 VGND VGND VPWR VPWR sky130_fd_sc_hd__fill_1
XFILLER_78_253 VGND VPWR VPWR VGND sky130_ef_sc_hd__decap_12
XFILLER_38_106 VGND VPWR VPWR VGND sky130_ef_sc_hd__decap_12
X_2070_ _3740_/Q VGND VGND VPWR VPWR _2883_/A sky130_fd_sc_hd__clkinv_2
XFILLER_19_375 VGND VGND VPWR VPWR sky130_fd_sc_hd__decap_4
XFILLER_46_183 VGND VPWR VPWR VGND sky130_ef_sc_hd__decap_12
XFILLER_34_389 VGND VGND VPWR VPWR sky130_fd_sc_hd__decap_6
X_2972_ _3002_/A _3729_/Q VGND VGND VPWR VPWR _2972_/Y sky130_fd_sc_hd__nand2_1
XFILLER_61_164 VGND VGND VPWR VPWR sky130_fd_sc_hd__decap_4
XFILLER_61_186 VGND VGND VPWR VPWR sky130_fd_sc_hd__fill_1
X_1923_ _3747_/Q _3748_/Q VGND VGND VPWR VPWR _1928_/A sky130_fd_sc_hd__and2b_1
X_1854_ _2140_/A _2259_/B VGND VGND VPWR VPWR _1916_/A sky130_fd_sc_hd__and2_1
X_3524_ _3887_/Q _3884_/Q _3607_/A VGND VGND VPWR VPWR _3525_/B sky130_fd_sc_hd__mux2_1
X_3455_ _3451_/X _3453_/X _3454_/X _3876_/Q _3577_/A VGND VGND VPWR VPWR _3876_/D
+ sky130_fd_sc_hd__a32o_1
X_2406_ _3752_/Q _2782_/A _2405_/C _2608_/A _2405_/X VGND VGND VPWR VPWR _2406_/X
+ sky130_fd_sc_hd__a221o_1
XFILLER_69_242 VGND VGND VPWR VPWR sky130_fd_sc_hd__decap_4
X_3386_ _3279_/B _3291_/B _1835_/B _1825_/B VGND VGND VPWR VPWR _3386_/X sky130_fd_sc_hd__a22o_1
X_2337_ _2337_/A _2337_/B VGND VGND VPWR VPWR _2337_/Y sky130_fd_sc_hd__nand2_1
XFILLER_57_404 VGND VGND VPWR VPWR sky130_fd_sc_hd__decap_4
XFILLER_29_128 VGND VGND VPWR VPWR sky130_fd_sc_hd__decap_8
X_2268_ _2268_/A VGND VGND VPWR VPWR _2948_/B sky130_fd_sc_hd__inv_2
XFILLER_37_150 VGND VPWR VPWR VGND sky130_ef_sc_hd__decap_12
X_2199_ _3630_/Q input3/X _3362_/S VGND VGND VPWR VPWR _2199_/X sky130_fd_sc_hd__mux2_1
XFILLER_25_301 VGND VGND VPWR VPWR sky130_fd_sc_hd__decap_4
XFILLER_25_334 VGND VGND VPWR VPWR sky130_fd_sc_hd__fill_2
XFILLER_52_131 VGND VGND VPWR VPWR sky130_fd_sc_hd__fill_2
XFILLER_40_315 VGND VGND VPWR VPWR sky130_fd_sc_hd__decap_6
XFILLER_71_39 VGND VGND VPWR VPWR sky130_fd_sc_hd__decap_4
XFILLER_0_477 VGND VGND VPWR VPWR sky130_fd_sc_hd__fill_2
XFILLER_29_30 VGND VGND VPWR VPWR sky130_fd_sc_hd__decap_6
XFILLER_29_52 VGND VGND VPWR VPWR sky130_fd_sc_hd__decap_4
XFILLER_75_223 VGND VGND VPWR VPWR sky130_fd_sc_hd__fill_1
XFILLER_16_356 VGND VGND VPWR VPWR sky130_fd_sc_hd__decap_8
XFILLER_28_194 VGND VGND VPWR VPWR sky130_fd_sc_hd__fill_2
XFILLER_31_304 VGND VPWR VPWR VGND sky130_ef_sc_hd__decap_12
XFILLER_43_164 VGND VGND VPWR VPWR sky130_fd_sc_hd__decap_4
XFILLER_61_83 VGND VGND VPWR VPWR sky130_fd_sc_hd__decap_8
XFILLER_6_56 VGND VPWR VPWR VGND sky130_ef_sc_hd__decap_12
XFILLER_6_45 VGND VGND VPWR VPWR sky130_fd_sc_hd__fill_1
XANTENNA_5 _3628_/Q VGND VGND VPWR VPWR sky130_fd_sc_hd__diode_2
XTAP_315 VGND VPWR sky130_fd_sc_hd__tapvpwrvgnd_1
XTAP_304 VGND VPWR sky130_fd_sc_hd__tapvpwrvgnd_1
X_3240_ _3244_/A _3835_/Q _3244_/C VGND VGND VPWR VPWR _3240_/X sky130_fd_sc_hd__and3_1
XFILLER_3_293 VGND VGND VPWR VPWR sky130_fd_sc_hd__decap_6
XTAP_326 VGND VPWR sky130_fd_sc_hd__tapvpwrvgnd_1
XTAP_337 VGND VPWR sky130_fd_sc_hd__tapvpwrvgnd_1
XTAP_348 VGND VPWR sky130_fd_sc_hd__tapvpwrvgnd_1
X_3171_ input48/X _3781_/Q _3173_/S VGND VGND VPWR VPWR _3781_/D sky130_fd_sc_hd__mux2_1
XTAP_359 VGND VPWR sky130_fd_sc_hd__tapvpwrvgnd_1
XFILLER_66_223 VGND VPWR VPWR VGND sky130_ef_sc_hd__decap_12
X_2122_ _2122_/A _2439_/B VGND VGND VPWR VPWR _2184_/A sky130_fd_sc_hd__and2_1
XFILLER_81_237 VGND VGND VPWR VPWR sky130_fd_sc_hd__decap_6
X_2053_ _2053_/A _2053_/B _2053_/C VGND VGND VPWR VPWR _2054_/B sky130_fd_sc_hd__nand3_1
XFILLER_62_462 VGND VPWR VPWR VGND sky130_ef_sc_hd__decap_12
X_2955_ _2367_/A _3023_/A _2399_/A _2286_/A _2303_/X VGND VGND VPWR VPWR _3017_/A
+ sky130_fd_sc_hd__a311oi_1
X_1906_ _3011_/B _3060_/B VGND VGND VPWR VPWR _1915_/A sky130_fd_sc_hd__nor2_1
X_2886_ _2886_/A _2886_/B _2886_/C _2886_/D VGND VGND VPWR VPWR _2886_/X sky130_fd_sc_hd__and4_1
X_1837_ _3306_/A _1828_/Y _3662_/Q _1830_/X _3579_/A VGND VGND VPWR VPWR _1838_/A
+ sky130_fd_sc_hd__a311o_1
X_3507_ _3568_/A _3507_/B VGND VGND VPWR VPWR _3507_/X sky130_fd_sc_hd__or2_1
X_3438_ _3559_/A _3438_/B VGND VGND VPWR VPWR _3438_/Y sky130_fd_sc_hd__nor2_1
XTAP_871 VGND VPWR sky130_fd_sc_hd__tapvpwrvgnd_1
XTAP_860 VGND VPWR sky130_fd_sc_hd__tapvpwrvgnd_1
X_3369_ _3367_/X _3368_/Y _3319_/A VGND VGND VPWR VPWR _3369_/Y sky130_fd_sc_hd__a21oi_1
XTAP_882 VGND VPWR sky130_fd_sc_hd__tapvpwrvgnd_1
XFILLER_57_223 VGND VGND VPWR VPWR sky130_fd_sc_hd__fill_1
XFILLER_57_267 VGND VGND VPWR VPWR sky130_fd_sc_hd__fill_1
XFILLER_38_481 VGND VGND VPWR VPWR sky130_fd_sc_hd__decap_8
XFILLER_45_429 VGND VGND VPWR VPWR sky130_fd_sc_hd__decap_4
XFILLER_82_16 VGND VPWR VPWR VGND sky130_ef_sc_hd__decap_12
XFILLER_15_65 VGND VGND VPWR VPWR sky130_fd_sc_hd__decap_3
XFILLER_15_43 VGND VGND VPWR VPWR sky130_fd_sc_hd__decap_4
XFILLER_40_123 VGND VGND VPWR VPWR sky130_fd_sc_hd__decap_4
XFILLER_21_370 VGND VGND VPWR VPWR sky130_fd_sc_hd__decap_8
Xoutput75 _3810_/Q VGND VGND VPWR VPWR o_wb_data[13] sky130_fd_sc_hd__clkbuf_1
Xoutput64 _1845_/X VGND VGND VPWR VPWR o_qspi_dat[1] sky130_fd_sc_hd__clkbuf_1
Xoutput86 _3814_/Q VGND VGND VPWR VPWR o_wb_data[23] sky130_fd_sc_hd__clkbuf_1
Xoutput97 _3801_/Q VGND VGND VPWR VPWR o_wb_data[4] sky130_fd_sc_hd__clkbuf_1
XFILLER_48_201 VGND VGND VPWR VPWR sky130_fd_sc_hd__decap_4
XFILLER_48_267 VGND VPWR VPWR VGND sky130_ef_sc_hd__decap_12
XFILLER_36_429 VGND VPWR VPWR VGND sky130_ef_sc_hd__decap_12
XFILLER_56_83 VGND VGND VPWR VPWR sky130_fd_sc_hd__fill_1
XFILLER_72_60 VGND VGND VPWR VPWR sky130_fd_sc_hd__decap_3
XFILLER_31_167 VGND VGND VPWR VPWR sky130_fd_sc_hd__fill_1
X_2740_ _2883_/A _3011_/A _3046_/B _2737_/Y _2739_/X VGND VGND VPWR VPWR _2740_/X
+ sky130_fd_sc_hd__o2111a_1
XFILLER_8_363 VGND VGND VPWR VPWR sky130_fd_sc_hd__fill_1
X_2671_ _3685_/Q _2762_/B _2839_/A _2670_/Y VGND VGND VPWR VPWR _2672_/A sky130_fd_sc_hd__a31o_1
X_3223_ _3222_/X _3794_/Q _3263_/S VGND VGND VPWR VPWR _3794_/D sky130_fd_sc_hd__mux2_1
XTAP_167 VGND VPWR sky130_fd_sc_hd__tapvpwrvgnd_1
XTAP_178 VGND VPWR sky130_fd_sc_hd__tapvpwrvgnd_1
XTAP_189 VGND VPWR sky130_fd_sc_hd__tapvpwrvgnd_1
X_3154_ input30/X _3764_/Q _3165_/S VGND VGND VPWR VPWR _3764_/D sky130_fd_sc_hd__mux2_1
XFILLER_39_256 VGND VGND VPWR VPWR sky130_fd_sc_hd__decap_4
X_3085_ _3085_/A _3085_/B VGND VGND VPWR VPWR _3087_/A sky130_fd_sc_hd__nand2_1
XFILLER_39_289 VGND VGND VPWR VPWR sky130_fd_sc_hd__decap_6
X_2105_ _2105_/A _2105_/B _2105_/C VGND VGND VPWR VPWR _2106_/B sky130_fd_sc_hd__or3_1
X_2036_ _2039_/A _2042_/A VGND VGND VPWR VPWR _2037_/A sky130_fd_sc_hd__nand2_1
XFILLER_54_248 VGND VGND VPWR VPWR sky130_fd_sc_hd__decap_4
XFILLER_50_432 VGND VPWR VPWR VGND sky130_ef_sc_hd__decap_12
XFILLER_10_318 VGND VPWR VPWR VGND sky130_ef_sc_hd__decap_12
X_2938_ _3720_/Q VGND VGND VPWR VPWR _2940_/B sky130_fd_sc_hd__inv_2
X_2869_ _3702_/Q VGND VGND VPWR VPWR _2879_/A sky130_fd_sc_hd__inv_2
XTAP_690 VGND VPWR sky130_fd_sc_hd__tapvpwrvgnd_1
XFILLER_60_207 VGND VGND VPWR VPWR sky130_fd_sc_hd__fill_1
XFILLER_13_101 VGND VGND VPWR VPWR sky130_fd_sc_hd__decap_8
XFILLER_41_410 VGND VPWR VPWR VGND sky130_ef_sc_hd__decap_12
XFILLER_53_281 VGND VPWR VPWR VGND sky130_ef_sc_hd__decap_12
XFILLER_13_134 VGND VGND VPWR VPWR sky130_fd_sc_hd__decap_4
XFILLER_5_366 VGND VGND VPWR VPWR sky130_fd_sc_hd__decap_3
XFILLER_68_307 VGND VGND VPWR VPWR sky130_fd_sc_hd__fill_1
XFILLER_3_57 VGND VPWR VPWR VGND sky130_ef_sc_hd__decap_12
XFILLER_76_384 VGND VGND VPWR VPWR sky130_fd_sc_hd__decap_3
XFILLER_17_473 VGND VGND VPWR VPWR sky130_fd_sc_hd__decap_8