* NGSPICE file created from wbqspiflash.ext - technology: sky130A

* Black-box entry subcircuit for sky130_fd_sc_hd__inv_2 abstract view
.subckt sky130_fd_sc_hd__inv_2 A VGND VNB VPB VPWR Y
.ends

* Black-box entry subcircuit for sky130_fd_sc_hd__decap_4 abstract view
.subckt sky130_fd_sc_hd__decap_4 VGND VNB VPB VPWR
.ends

* Black-box entry subcircuit for sky130_fd_sc_hd__fill_1 abstract view
.subckt sky130_fd_sc_hd__fill_1 VGND VNB VPB VPWR
.ends

* Black-box entry subcircuit for sky130_fd_sc_hd__decap_8 abstract view
.subckt sky130_fd_sc_hd__decap_8 VGND VNB VPB VPWR
.ends

* Black-box entry subcircuit for sky130_fd_sc_hd__tapvpwrvgnd_1 abstract view
.subckt sky130_fd_sc_hd__tapvpwrvgnd_1 VGND VPWR
.ends

* Black-box entry subcircuit for sky130_fd_sc_hd__mux2_1 abstract view
.subckt sky130_fd_sc_hd__mux2_1 A0 A1 S VGND VNB VPB VPWR X
.ends

* Black-box entry subcircuit for sky130_fd_sc_hd__decap_3 abstract view
.subckt sky130_fd_sc_hd__decap_3 VGND VNB VPB VPWR
.ends

* Black-box entry subcircuit for sky130_fd_sc_hd__fill_2 abstract view
.subckt sky130_fd_sc_hd__fill_2 VGND VNB VPB VPWR
.ends

* Black-box entry subcircuit for sky130_fd_sc_hd__decap_6 abstract view
.subckt sky130_fd_sc_hd__decap_6 VGND VNB VPB VPWR
.ends

* Black-box entry subcircuit for sky130_fd_sc_hd__dfxtp_4 abstract view
.subckt sky130_fd_sc_hd__dfxtp_4 CLK D VGND VNB VPB VPWR Q
.ends

* Black-box entry subcircuit for sky130_fd_sc_hd__dfxtp_2 abstract view
.subckt sky130_fd_sc_hd__dfxtp_2 CLK D VGND VNB VPB VPWR Q
.ends

* Black-box entry subcircuit for sky130_fd_sc_hd__a21oi_1 abstract view
.subckt sky130_fd_sc_hd__a21oi_1 A1 A2 B1 VGND VNB VPB VPWR Y
.ends

* Black-box entry subcircuit for sky130_fd_sc_hd__o221a_1 abstract view
.subckt sky130_fd_sc_hd__o221a_1 A1 A2 B1 B2 C1 VGND VNB VPB VPWR X
.ends

* Black-box entry subcircuit for sky130_fd_sc_hd__and2b_1 abstract view
.subckt sky130_fd_sc_hd__and2b_1 A_N B VGND VNB VPB VPWR X
.ends

* Black-box entry subcircuit for sky130_fd_sc_hd__dfxtp_1 abstract view
.subckt sky130_fd_sc_hd__dfxtp_1 CLK D VGND VNB VPB VPWR Q
.ends

* Black-box entry subcircuit for sky130_fd_sc_hd__a221o_1 abstract view
.subckt sky130_fd_sc_hd__a221o_1 A1 A2 B1 B2 C1 VGND VNB VPB VPWR X
.ends

* Black-box entry subcircuit for sky130_fd_sc_hd__a22o_1 abstract view
.subckt sky130_fd_sc_hd__a22o_1 A1 A2 B1 B2 VGND VNB VPB VPWR X
.ends

* Black-box entry subcircuit for sky130_fd_sc_hd__buf_8 abstract view
.subckt sky130_fd_sc_hd__buf_8 A VGND VNB VPB VPWR X
.ends

* Black-box entry subcircuit for sky130_fd_sc_hd__o22a_1 abstract view
.subckt sky130_fd_sc_hd__o22a_1 A1 A2 B1 B2 VGND VNB VPB VPWR X
.ends

* Black-box entry subcircuit for sky130_fd_sc_hd__mux2_4 abstract view
.subckt sky130_fd_sc_hd__mux2_4 A0 A1 S VGND VNB VPB VPWR X
.ends

* Black-box entry subcircuit for sky130_fd_sc_hd__nor2_1 abstract view
.subckt sky130_fd_sc_hd__nor2_1 A B VGND VNB VPB VPWR Y
.ends

* Black-box entry subcircuit for sky130_fd_sc_hd__or2_1 abstract view
.subckt sky130_fd_sc_hd__or2_1 A B VGND VNB VPB VPWR X
.ends

* Black-box entry subcircuit for sky130_fd_sc_hd__a211o_1 abstract view
.subckt sky130_fd_sc_hd__a211o_1 A1 A2 B1 C1 VGND VNB VPB VPWR X
.ends

* Black-box entry subcircuit for sky130_fd_sc_hd__nand2_1 abstract view
.subckt sky130_fd_sc_hd__nand2_1 A B VGND VNB VPB VPWR Y
.ends

* Black-box entry subcircuit for sky130_fd_sc_hd__diode_2 abstract view
.subckt sky130_fd_sc_hd__diode_2 DIODE VGND VNB VPB VPWR
.ends

* Black-box entry subcircuit for sky130_fd_sc_hd__and2_1 abstract view
.subckt sky130_fd_sc_hd__and2_1 A B VGND VNB VPB VPWR X
.ends

* Black-box entry subcircuit for sky130_fd_sc_hd__o21ai_1 abstract view
.subckt sky130_fd_sc_hd__o21ai_1 A1 A2 B1 VGND VNB VPB VPWR Y
.ends

* Black-box entry subcircuit for sky130_ef_sc_hd__decap_12 abstract view
.subckt sky130_ef_sc_hd__decap_12 VGND VPWR VPB VNB
.ends

* Black-box entry subcircuit for sky130_fd_sc_hd__clkbuf_1 abstract view
.subckt sky130_fd_sc_hd__clkbuf_1 A VGND VNB VPB VPWR X
.ends

* Black-box entry subcircuit for sky130_fd_sc_hd__or4b_1 abstract view
.subckt sky130_fd_sc_hd__or4b_1 A B C D_N VGND VNB VPB VPWR X
.ends

* Black-box entry subcircuit for sky130_fd_sc_hd__and3_1 abstract view
.subckt sky130_fd_sc_hd__and3_1 A B C VGND VNB VPB VPWR X
.ends

* Black-box entry subcircuit for sky130_fd_sc_hd__o21a_1 abstract view
.subckt sky130_fd_sc_hd__o21a_1 A1 A2 B1 VGND VNB VPB VPWR X
.ends

* Black-box entry subcircuit for sky130_fd_sc_hd__o41a_1 abstract view
.subckt sky130_fd_sc_hd__o41a_1 A1 A2 A3 A4 B1 VGND VNB VPB VPWR X
.ends

* Black-box entry subcircuit for sky130_fd_sc_hd__a21bo_1 abstract view
.subckt sky130_fd_sc_hd__a21bo_1 A1 A2 B1_N VGND VNB VPB VPWR X
.ends

* Black-box entry subcircuit for sky130_fd_sc_hd__o32a_1 abstract view
.subckt sky130_fd_sc_hd__o32a_1 A1 A2 A3 B1 B2 VGND VNB VPB VPWR X
.ends

* Black-box entry subcircuit for sky130_fd_sc_hd__a31oi_4 abstract view
.subckt sky130_fd_sc_hd__a31oi_4 A1 A2 A3 B1 VGND VNB VPB VPWR Y
.ends

* Black-box entry subcircuit for sky130_fd_sc_hd__clkbuf_16 abstract view
.subckt sky130_fd_sc_hd__clkbuf_16 A VGND VNB VPB VPWR X
.ends

* Black-box entry subcircuit for sky130_fd_sc_hd__or4_1 abstract view
.subckt sky130_fd_sc_hd__or4_1 A B C D VGND VNB VPB VPWR X
.ends

* Black-box entry subcircuit for sky130_fd_sc_hd__o21ai_4 abstract view
.subckt sky130_fd_sc_hd__o21ai_4 A1 A2 B1 VGND VNB VPB VPWR Y
.ends

* Black-box entry subcircuit for sky130_fd_sc_hd__o211a_1 abstract view
.subckt sky130_fd_sc_hd__o211a_1 A1 A2 B1 C1 VGND VNB VPB VPWR X
.ends

* Black-box entry subcircuit for sky130_fd_sc_hd__buf_4 abstract view
.subckt sky130_fd_sc_hd__buf_4 A VGND VNB VPB VPWR X
.ends

* Black-box entry subcircuit for sky130_fd_sc_hd__a31o_1 abstract view
.subckt sky130_fd_sc_hd__a31o_1 A1 A2 A3 B1 VGND VNB VPB VPWR X
.ends

* Black-box entry subcircuit for sky130_fd_sc_hd__a21o_1 abstract view
.subckt sky130_fd_sc_hd__a21o_1 A1 A2 B1 VGND VNB VPB VPWR X
.ends

* Black-box entry subcircuit for sky130_fd_sc_hd__a311o_1 abstract view
.subckt sky130_fd_sc_hd__a311o_1 A1 A2 A3 B1 C1 VGND VNB VPB VPWR X
.ends

* Black-box entry subcircuit for sky130_fd_sc_hd__a2bb2o_1 abstract view
.subckt sky130_fd_sc_hd__a2bb2o_1 A1_N A2_N B1 B2 VGND VNB VPB VPWR X
.ends

* Black-box entry subcircuit for sky130_fd_sc_hd__and4_1 abstract view
.subckt sky130_fd_sc_hd__and4_1 A B C D VGND VNB VPB VPWR X
.ends

* Black-box entry subcircuit for sky130_fd_sc_hd__or3b_1 abstract view
.subckt sky130_fd_sc_hd__or3b_1 A B C_N VGND VNB VPB VPWR X
.ends

* Black-box entry subcircuit for sky130_fd_sc_hd__nand2_8 abstract view
.subckt sky130_fd_sc_hd__nand2_8 A B VGND VNB VPB VPWR Y
.ends

* Black-box entry subcircuit for sky130_fd_sc_hd__nor2_8 abstract view
.subckt sky130_fd_sc_hd__nor2_8 A B VGND VNB VPB VPWR Y
.ends

* Black-box entry subcircuit for sky130_fd_sc_hd__nand3_1 abstract view
.subckt sky130_fd_sc_hd__nand3_1 A B C VGND VNB VPB VPWR Y
.ends

* Black-box entry subcircuit for sky130_fd_sc_hd__and3b_1 abstract view
.subckt sky130_fd_sc_hd__and3b_1 A_N B C VGND VNB VPB VPWR X
.ends

* Black-box entry subcircuit for sky130_fd_sc_hd__nand2_2 abstract view
.subckt sky130_fd_sc_hd__nand2_2 A B VGND VNB VPB VPWR Y
.ends

* Black-box entry subcircuit for sky130_fd_sc_hd__clkinv_2 abstract view
.subckt sky130_fd_sc_hd__clkinv_2 A VGND VNB VPB VPWR Y
.ends

* Black-box entry subcircuit for sky130_fd_sc_hd__or4b_2 abstract view
.subckt sky130_fd_sc_hd__or4b_2 A B C D_N VGND VNB VPB VPWR X
.ends

* Black-box entry subcircuit for sky130_fd_sc_hd__xnor2_1 abstract view
.subckt sky130_fd_sc_hd__xnor2_1 A B VGND VNB VPB VPWR Y
.ends

* Black-box entry subcircuit for sky130_fd_sc_hd__or2_2 abstract view
.subckt sky130_fd_sc_hd__or2_2 A B VGND VNB VPB VPWR X
.ends

* Black-box entry subcircuit for sky130_fd_sc_hd__a32o_1 abstract view
.subckt sky130_fd_sc_hd__a32o_1 A1 A2 A3 B1 B2 VGND VNB VPB VPWR X
.ends

* Black-box entry subcircuit for sky130_fd_sc_hd__nor2_4 abstract view
.subckt sky130_fd_sc_hd__nor2_4 A B VGND VNB VPB VPWR Y
.ends

* Black-box entry subcircuit for sky130_fd_sc_hd__o2bb2a_1 abstract view
.subckt sky130_fd_sc_hd__o2bb2a_1 A1_N A2_N B1 B2 VGND VNB VPB VPWR X
.ends

* Black-box entry subcircuit for sky130_fd_sc_hd__clkbuf_4 abstract view
.subckt sky130_fd_sc_hd__clkbuf_4 A VGND VNB VPB VPWR X
.ends

* Black-box entry subcircuit for sky130_fd_sc_hd__or3_1 abstract view
.subckt sky130_fd_sc_hd__or3_1 A B C VGND VNB VPB VPWR X
.ends

* Black-box entry subcircuit for sky130_fd_sc_hd__o21ba_1 abstract view
.subckt sky130_fd_sc_hd__o21ba_1 A1 A2 B1_N VGND VNB VPB VPWR X
.ends

* Black-box entry subcircuit for sky130_fd_sc_hd__nor2_2 abstract view
.subckt sky130_fd_sc_hd__nor2_2 A B VGND VNB VPB VPWR Y
.ends

* Black-box entry subcircuit for sky130_fd_sc_hd__o311a_1 abstract view
.subckt sky130_fd_sc_hd__o311a_1 A1 A2 A3 B1 C1 VGND VNB VPB VPWR X
.ends

* Black-box entry subcircuit for sky130_fd_sc_hd__buf_6 abstract view
.subckt sky130_fd_sc_hd__buf_6 A VGND VNB VPB VPWR X
.ends

* Black-box entry subcircuit for sky130_fd_sc_hd__nand4_2 abstract view
.subckt sky130_fd_sc_hd__nand4_2 A B C D VGND VNB VPB VPWR Y
.ends

* Black-box entry subcircuit for sky130_fd_sc_hd__a21oi_2 abstract view
.subckt sky130_fd_sc_hd__a21oi_2 A1 A2 B1 VGND VNB VPB VPWR Y
.ends

* Black-box entry subcircuit for sky130_fd_sc_hd__xor2_1 abstract view
.subckt sky130_fd_sc_hd__xor2_1 A B VGND VNB VPB VPWR X
.ends

* Black-box entry subcircuit for sky130_fd_sc_hd__clkbuf_2 abstract view
.subckt sky130_fd_sc_hd__clkbuf_2 A VGND VNB VPB VPWR X
.ends

* Black-box entry subcircuit for sky130_fd_sc_hd__a311oi_1 abstract view
.subckt sky130_fd_sc_hd__a311oi_1 A1 A2 A3 B1 C1 VGND VNB VPB VPWR Y
.ends

* Black-box entry subcircuit for sky130_fd_sc_hd__and3_2 abstract view
.subckt sky130_fd_sc_hd__and3_2 A B C VGND VNB VPB VPWR X
.ends

* Black-box entry subcircuit for sky130_fd_sc_hd__nand2b_4 abstract view
.subckt sky130_fd_sc_hd__nand2b_4 A_N B VGND VNB VPB VPWR Y
.ends

* Black-box entry subcircuit for sky130_fd_sc_hd__a31oi_1 abstract view
.subckt sky130_fd_sc_hd__a31oi_1 A1 A2 A3 B1 VGND VNB VPB VPWR Y
.ends

* Black-box entry subcircuit for sky130_fd_sc_hd__o2111a_1 abstract view
.subckt sky130_fd_sc_hd__o2111a_1 A1 A2 B1 C1 D1 VGND VNB VPB VPWR X
.ends

* Black-box entry subcircuit for sky130_fd_sc_hd__or4bb_4 abstract view
.subckt sky130_fd_sc_hd__or4bb_4 A B C_N D_N VGND VNB VPB VPWR X
.ends

* Black-box entry subcircuit for sky130_fd_sc_hd__or2b_1 abstract view
.subckt sky130_fd_sc_hd__or2b_1 A B_N VGND VNB VPB VPWR X
.ends

* Black-box entry subcircuit for sky130_fd_sc_hd__and4_2 abstract view
.subckt sky130_fd_sc_hd__and4_2 A B C D VGND VNB VPB VPWR X
.ends

* Black-box entry subcircuit for sky130_fd_sc_hd__clkinv_4 abstract view
.subckt sky130_fd_sc_hd__clkinv_4 A VGND VNB VPB VPWR Y
.ends

* Black-box entry subcircuit for sky130_fd_sc_hd__a41o_1 abstract view
.subckt sky130_fd_sc_hd__a41o_1 A1 A2 A3 A4 B1 VGND VNB VPB VPWR X
.ends

* Black-box entry subcircuit for sky130_fd_sc_hd__a221oi_1 abstract view
.subckt sky130_fd_sc_hd__a221oi_1 A1 A2 B1 B2 C1 VGND VNB VPB VPWR Y
.ends

* Black-box entry subcircuit for sky130_fd_sc_hd__a211oi_4 abstract view
.subckt sky130_fd_sc_hd__a211oi_4 A1 A2 B1 C1 VGND VNB VPB VPWR Y
.ends

* Black-box entry subcircuit for sky130_fd_sc_hd__or3b_2 abstract view
.subckt sky130_fd_sc_hd__or3b_2 A B C_N VGND VNB VPB VPWR X
.ends

* Black-box entry subcircuit for sky130_fd_sc_hd__a2111oi_1 abstract view
.subckt sky130_fd_sc_hd__a2111oi_1 A1 A2 B1 C1 D1 VGND VNB VPB VPWR Y
.ends

* Black-box entry subcircuit for sky130_fd_sc_hd__nor3_4 abstract view
.subckt sky130_fd_sc_hd__nor3_4 A B C VGND VNB VPB VPWR Y
.ends

* Black-box entry subcircuit for sky130_fd_sc_hd__o31a_1 abstract view
.subckt sky130_fd_sc_hd__o31a_1 A1 A2 A3 B1 VGND VNB VPB VPWR X
.ends

* Black-box entry subcircuit for sky130_fd_sc_hd__buf_12 abstract view
.subckt sky130_fd_sc_hd__buf_12 A VGND VNB VPB VPWR X
.ends

* Black-box entry subcircuit for sky130_fd_sc_hd__or4bb_1 abstract view
.subckt sky130_fd_sc_hd__or4bb_1 A B C_N D_N VGND VNB VPB VPWR X
.ends

* Black-box entry subcircuit for sky130_fd_sc_hd__dlymetal6s2s_1 abstract view
.subckt sky130_fd_sc_hd__dlymetal6s2s_1 A VGND VNB VPB VPWR X
.ends

* Black-box entry subcircuit for sky130_fd_sc_hd__a2111o_1 abstract view
.subckt sky130_fd_sc_hd__a2111o_1 A1 A2 B1 C1 D1 VGND VNB VPB VPWR X
.ends

* Black-box entry subcircuit for sky130_fd_sc_hd__o31ai_1 abstract view
.subckt sky130_fd_sc_hd__o31ai_1 A1 A2 A3 B1 VGND VNB VPB VPWR Y
.ends

* Black-box entry subcircuit for sky130_fd_sc_hd__nor3_1 abstract view
.subckt sky130_fd_sc_hd__nor3_1 A B C VGND VNB VPB VPWR Y
.ends

* Black-box entry subcircuit for sky130_fd_sc_hd__o22ai_1 abstract view
.subckt sky130_fd_sc_hd__o22ai_1 A1 A2 B1 B2 VGND VNB VPB VPWR Y
.ends

* Black-box entry subcircuit for sky130_fd_sc_hd__buf_2 abstract view
.subckt sky130_fd_sc_hd__buf_2 A VGND VNB VPB VPWR X
.ends

* Black-box entry subcircuit for sky130_fd_sc_hd__nand2_4 abstract view
.subckt sky130_fd_sc_hd__nand2_4 A B VGND VNB VPB VPWR Y
.ends

* Black-box entry subcircuit for sky130_fd_sc_hd__inv_4 abstract view
.subckt sky130_fd_sc_hd__inv_4 A VGND VNB VPB VPWR Y
.ends

* Black-box entry subcircuit for sky130_fd_sc_hd__and4bb_2 abstract view
.subckt sky130_fd_sc_hd__and4bb_2 A_N B_N C D VGND VNB VPB VPWR X
.ends

* Black-box entry subcircuit for sky130_fd_sc_hd__a311o_2 abstract view
.subckt sky130_fd_sc_hd__a311o_2 A1 A2 A3 B1 C1 VGND VNB VPB VPWR X
.ends

* Black-box entry subcircuit for sky130_fd_sc_hd__and4b_1 abstract view
.subckt sky130_fd_sc_hd__and4b_1 A_N B C D VGND VNB VPB VPWR X
.ends

* Black-box entry subcircuit for sky130_fd_sc_hd__a21o_2 abstract view
.subckt sky130_fd_sc_hd__a21o_2 A1 A2 B1 VGND VNB VPB VPWR X
.ends

* Black-box entry subcircuit for sky130_fd_sc_hd__nand3_4 abstract view
.subckt sky130_fd_sc_hd__nand3_4 A B C VGND VNB VPB VPWR Y
.ends

* Black-box entry subcircuit for sky130_fd_sc_hd__nand3_2 abstract view
.subckt sky130_fd_sc_hd__nand3_2 A B C VGND VNB VPB VPWR Y
.ends

* Black-box entry subcircuit for sky130_fd_sc_hd__or2_4 abstract view
.subckt sky130_fd_sc_hd__or2_4 A B VGND VNB VPB VPWR X
.ends

* Black-box entry subcircuit for sky130_fd_sc_hd__o211ai_4 abstract view
.subckt sky130_fd_sc_hd__o211ai_4 A1 A2 B1 C1 VGND VNB VPB VPWR Y
.ends

* Black-box entry subcircuit for sky130_fd_sc_hd__nor4_1 abstract view
.subckt sky130_fd_sc_hd__nor4_1 A B C D VGND VNB VPB VPWR Y
.ends

* Black-box entry subcircuit for sky130_fd_sc_hd__a21boi_1 abstract view
.subckt sky130_fd_sc_hd__a21boi_1 A1 A2 B1_N VGND VNB VPB VPWR Y
.ends

* Black-box entry subcircuit for sky130_fd_sc_hd__and2_2 abstract view
.subckt sky130_fd_sc_hd__and2_2 A B VGND VNB VPB VPWR X
.ends

* Black-box entry subcircuit for sky130_fd_sc_hd__a22oi_1 abstract view
.subckt sky130_fd_sc_hd__a22oi_1 A1 A2 B1 B2 VGND VNB VPB VPWR Y
.ends

* Black-box entry subcircuit for sky130_fd_sc_hd__o21bai_4 abstract view
.subckt sky130_fd_sc_hd__o21bai_4 A1 A2 B1_N VGND VNB VPB VPWR Y
.ends

* Black-box entry subcircuit for sky130_fd_sc_hd__and4bb_1 abstract view
.subckt sky130_fd_sc_hd__and4bb_1 A_N B_N C D VGND VNB VPB VPWR X
.ends

* Black-box entry subcircuit for sky130_fd_sc_hd__nand2b_2 abstract view
.subckt sky130_fd_sc_hd__nand2b_2 A_N B VGND VNB VPB VPWR Y
.ends

* Black-box entry subcircuit for sky130_fd_sc_hd__o21bai_1 abstract view
.subckt sky130_fd_sc_hd__o21bai_1 A1 A2 B1_N VGND VNB VPB VPWR Y
.ends

* Black-box entry subcircuit for sky130_fd_sc_hd__or3_2 abstract view
.subckt sky130_fd_sc_hd__or3_2 A B C VGND VNB VPB VPWR X
.ends

* Black-box entry subcircuit for sky130_fd_sc_hd__or4_2 abstract view
.subckt sky130_fd_sc_hd__or4_2 A B C D VGND VNB VPB VPWR X
.ends

.subckt wbqspiflash VGND VPWR i_clk i_qspi_dat[0] i_qspi_dat[1] i_qspi_dat[2] i_qspi_dat[3]
+ i_wb_addr[0] i_wb_addr[10] i_wb_addr[11] i_wb_addr[12] i_wb_addr[13] i_wb_addr[14]
+ i_wb_addr[15] i_wb_addr[16] i_wb_addr[17] i_wb_addr[18] i_wb_addr[19] i_wb_addr[1]
+ i_wb_addr[2] i_wb_addr[3] i_wb_addr[4] i_wb_addr[5] i_wb_addr[6] i_wb_addr[7] i_wb_addr[8]
+ i_wb_addr[9] i_wb_ctrl_stb i_wb_cyc i_wb_data[0] i_wb_data[10] i_wb_data[11] i_wb_data[12]
+ i_wb_data[13] i_wb_data[14] i_wb_data[15] i_wb_data[16] i_wb_data[17] i_wb_data[18]
+ i_wb_data[19] i_wb_data[1] i_wb_data[20] i_wb_data[21] i_wb_data[22] i_wb_data[23]
+ i_wb_data[24] i_wb_data[25] i_wb_data[26] i_wb_data[27] i_wb_data[28] i_wb_data[29]
+ i_wb_data[2] i_wb_data[30] i_wb_data[31] i_wb_data[3] i_wb_data[4] i_wb_data[5]
+ i_wb_data[6] i_wb_data[7] i_wb_data[8] i_wb_data[9] i_wb_data_stb i_wb_we o_interrupt
+ o_qspi_cs_n o_qspi_dat[0] o_qspi_dat[1] o_qspi_dat[2] o_qspi_dat[3] o_qspi_mod[0]
+ o_qspi_mod[1] o_qspi_sck o_wb_ack o_wb_data[0] o_wb_data[10] o_wb_data[11] o_wb_data[12]
+ o_wb_data[13] o_wb_data[14] o_wb_data[15] o_wb_data[16] o_wb_data[17] o_wb_data[18]
+ o_wb_data[19] o_wb_data[1] o_wb_data[20] o_wb_data[21] o_wb_data[22] o_wb_data[23]
+ o_wb_data[24] o_wb_data[25] o_wb_data[26] o_wb_data[27] o_wb_data[28] o_wb_data[29]
+ o_wb_data[2] o_wb_data[30] o_wb_data[31] o_wb_data[3] o_wb_data[4] o_wb_data[5]
+ o_wb_data[6] o_wb_data[7] o_wb_data[8] o_wb_data[9] o_wb_stall
X_2037_ _2734_/Q VGND VGND VPWR VPWR _2037_/Y sky130_fd_sc_hd__inv_2
XFILLER_54_269 VGND VGND VPWR VPWR sky130_fd_sc_hd__decap_4
XFILLER_54_236 VGND VGND VPWR VPWR sky130_fd_sc_hd__fill_1
XFILLER_36_19 VGND VGND VPWR VPWR sky130_fd_sc_hd__decap_8
XTAP_177 VGND VPWR sky130_fd_sc_hd__tapvpwrvgnd_1
XTAP_188 VGND VPWR sky130_fd_sc_hd__tapvpwrvgnd_1
XTAP_199 VGND VPWR sky130_fd_sc_hd__tapvpwrvgnd_1
X_2106_ _2720_/Q _1770_/B _2121_/S VGND VGND VPWR VPWR _2720_/D sky130_fd_sc_hd__mux2_1
XFILLER_52_29 VGND VGND VPWR VPWR sky130_fd_sc_hd__decap_3
XFILLER_45_236 VGND VGND VPWR VPWR sky130_fd_sc_hd__decap_4
XFILLER_45_225 VGND VGND VPWR VPWR sky130_fd_sc_hd__decap_4
XFILLER_26_85 VGND VGND VPWR VPWR sky130_fd_sc_hd__decap_3
XFILLER_13_166 VGND VGND VPWR VPWR sky130_fd_sc_hd__fill_2
XFILLER_5_332 VGND VGND VPWR VPWR sky130_fd_sc_hd__decap_4
XFILLER_36_269 VGND VGND VPWR VPWR sky130_fd_sc_hd__decap_4
XFILLER_51_217 VGND VGND VPWR VPWR sky130_fd_sc_hd__decap_6
X_1606_ _2650_/Q _1605_/X _1608_/S VGND VGND VPWR VPWR _2650_/D sky130_fd_sc_hd__mux2_1
XFILLER_8_192 VGND VGND VPWR VPWR sky130_fd_sc_hd__decap_4
X_2655_ _2893_/CLK _2655_/D VGND VGND VPWR VPWR _2655_/Q sky130_fd_sc_hd__dfxtp_4
X_2724_ _2724_/CLK _2724_/D VGND VGND VPWR VPWR _2724_/Q sky130_fd_sc_hd__dfxtp_2
XFILLER_59_317 VGND VGND VPWR VPWR sky130_fd_sc_hd__decap_4
X_1468_ _2729_/Q _1474_/B _2730_/Q VGND VGND VPWR VPWR _1469_/B sky130_fd_sc_hd__a21oi_1
X_1399_ _2619_/Q VGND VGND VPWR VPWR _1414_/A sky130_fd_sc_hd__inv_2
X_1537_ _1363_/B _1934_/B _1536_/X _2018_/C _1782_/A VGND VGND VPWR VPWR _1538_/D
+ sky130_fd_sc_hd__o221a_1
X_2586_ _2891_/Q _2585_/B _2594_/B VGND VGND VPWR VPWR _2587_/B sky130_fd_sc_hd__a21oi_1
XFILLER_27_225 VGND VGND VPWR VPWR sky130_fd_sc_hd__decap_3
XFILLER_50_261 VGND VGND VPWR VPWR sky130_fd_sc_hd__decap_4
XFILLER_10_136 VGND VGND VPWR VPWR sky130_fd_sc_hd__decap_4
XFILLER_37_40 VGND VGND VPWR VPWR sky130_fd_sc_hd__decap_4
XFILLER_53_61 VGND VGND VPWR VPWR sky130_fd_sc_hd__fill_1
XFILLER_41_272 VGND VGND VPWR VPWR sky130_fd_sc_hd__decap_8
XFILLER_52_6 VGND VGND VPWR VPWR sky130_fd_sc_hd__decap_8
X_2440_ _2661_/Q _2658_/Q _2561_/S VGND VGND VPWR VPWR _2441_/C sky130_fd_sc_hd__mux2_1
X_2371_ _2825_/Q _1553_/X _2819_/D VGND VGND VPWR VPWR _2825_/D sky130_fd_sc_hd__mux2_1
XFILLER_56_309 VGND VGND VPWR VPWR sky130_fd_sc_hd__decap_4
X_1322_ _2738_/Q _2813_/Q VGND VGND VPWR VPWR _1322_/X sky130_fd_sc_hd__and2b_1
XFILLER_5_195 VGND VGND VPWR VPWR sky130_fd_sc_hd__decap_4
X_2638_ _2844_/CLK _2638_/D VGND VGND VPWR VPWR _2638_/Q sky130_fd_sc_hd__dfxtp_1
XFILLER_58_17 VGND VGND VPWR VPWR sky130_fd_sc_hd__decap_4
X_2707_ _2748_/CLK _2707_/D VGND VGND VPWR VPWR _2707_/Q sky130_fd_sc_hd__dfxtp_1
X_2569_ _2687_/Q _2419_/A _2588_/B _2568_/X _2437_/X VGND VGND VPWR VPWR _2569_/X
+ sky130_fd_sc_hd__a221o_1
XFILLER_59_169 VGND VGND VPWR VPWR sky130_fd_sc_hd__fill_1
XFILLER_55_320 VGND VGND VPWR VPWR sky130_fd_sc_hd__decap_4
XFILLER_55_364 VGND VGND VPWR VPWR sky130_fd_sc_hd__decap_4
XFILLER_23_64 VGND VGND VPWR VPWR sky130_fd_sc_hd__decap_4
XFILLER_0_24 VGND VGND VPWR VPWR sky130_fd_sc_hd__decap_4
XFILLER_0_57 VGND VGND VPWR VPWR sky130_fd_sc_hd__decap_4
X_1871_ _2676_/Q _1742_/B _1870_/X _1982_/S VGND VGND VPWR VPWR _2676_/D sky130_fd_sc_hd__a22o_1
X_1940_ _2685_/Q VGND VGND VPWR VPWR _1940_/Y sky130_fd_sc_hd__inv_2
XFILLER_14_250 VGND VGND VPWR VPWR sky130_fd_sc_hd__fill_2
XFILLER_14_261 VGND VGND VPWR VPWR sky130_fd_sc_hd__decap_4
XFILLER_14_272 VGND VGND VPWR VPWR sky130_fd_sc_hd__decap_4
XFILLER_50_3 VGND VGND VPWR VPWR sky130_fd_sc_hd__decap_4
X_2423_ _2583_/B VGND VGND VPWR VPWR _2423_/X sky130_fd_sc_hd__buf_8
X_2285_ _2841_/Q _2304_/B _2295_/B _2698_/Q VGND VGND VPWR VPWR _2285_/X sky130_fd_sc_hd__a22o_1
XFILLER_37_320 VGND VGND VPWR VPWR sky130_fd_sc_hd__decap_4
X_2354_ _2815_/Q _2341_/A _2353_/X _2346_/A VGND VGND VPWR VPWR _2815_/D sky130_fd_sc_hd__o22a_1
X_1305_ _2816_/Q _2778_/Q _2738_/Q VGND VGND VPWR VPWR _2001_/C sky130_fd_sc_hd__mux2_4
XFILLER_60_29 VGND VGND VPWR VPWR sky130_fd_sc_hd__decap_3
XFILLER_18_20 VGND VGND VPWR VPWR sky130_fd_sc_hd__decap_8
XFILLER_34_85 VGND VGND VPWR VPWR sky130_fd_sc_hd__decap_3
XFILLER_34_74 VGND VGND VPWR VPWR sky130_fd_sc_hd__decap_6
XFILLER_11_220 VGND VGND VPWR VPWR sky130_fd_sc_hd__decap_4
XTAP_507 VGND VPWR sky130_fd_sc_hd__tapvpwrvgnd_1
XFILLER_50_73 VGND VGND VPWR VPWR sky130_fd_sc_hd__fill_1
XFILLER_7_279 VGND VGND VPWR VPWR sky130_fd_sc_hd__fill_1
XTAP_529 VGND VPWR sky130_fd_sc_hd__tapvpwrvgnd_1
XTAP_518 VGND VPWR sky130_fd_sc_hd__tapvpwrvgnd_1
XFILLER_22_7 VGND VGND VPWR VPWR sky130_fd_sc_hd__fill_1
X_2070_ _2087_/A _2070_/B VGND VGND VPWR VPWR _2707_/D sky130_fd_sc_hd__nor2_1
X_1923_ _2683_/Q _1923_/B VGND VGND VPWR VPWR _1923_/X sky130_fd_sc_hd__or2_1
X_1854_ _2674_/Q _1787_/A _1848_/X _1853_/X VGND VGND VPWR VPWR _1854_/X sky130_fd_sc_hd__a211o_1
X_1785_ _2665_/Q _1787_/A _1781_/X _1783_/X _1784_/X VGND VGND VPWR VPWR _1785_/X
+ sky130_fd_sc_hd__a221o_1
X_2406_ _2811_/Q _2894_/Q VGND VGND VPWR VPWR _2406_/Y sky130_fd_sc_hd__nor2_1
X_2268_ _2836_/Q _2304_/B _2295_/B _2693_/Q VGND VGND VPWR VPWR _2268_/X sky130_fd_sc_hd__a22o_1
X_2199_ _2009_/A _2014_/A _2158_/X _2027_/S VGND VGND VPWR VPWR _2210_/B sky130_fd_sc_hd__a211o_1
X_2337_ _2349_/A _2349_/B VGND VGND VPWR VPWR _2337_/Y sky130_fd_sc_hd__nand2_1
XFILLER_40_304 VGND VGND VPWR VPWR sky130_fd_sc_hd__decap_4
XFILLER_29_52 VGND VGND VPWR VPWR sky130_fd_sc_hd__decap_4
XFILLER_45_84 VGND VGND VPWR VPWR sky130_fd_sc_hd__fill_1
XFILLER_43_153 VGND VGND VPWR VPWR sky130_fd_sc_hd__decap_4
XFILLER_43_131 VGND VGND VPWR VPWR sky130_fd_sc_hd__decap_4
XFILLER_28_172 VGND VGND VPWR VPWR sky130_fd_sc_hd__decap_6
XFILLER_28_161 VGND VGND VPWR VPWR sky130_fd_sc_hd__decap_4
X_1570_ _2632_/Q _1569_/X _1598_/S VGND VGND VPWR VPWR _2632_/D sky130_fd_sc_hd__mux2_1
XTAP_348 VGND VPWR sky130_fd_sc_hd__tapvpwrvgnd_1
XTAP_337 VGND VPWR sky130_fd_sc_hd__tapvpwrvgnd_1
XTAP_326 VGND VPWR sky130_fd_sc_hd__tapvpwrvgnd_1
XTAP_315 VGND VPWR sky130_fd_sc_hd__tapvpwrvgnd_1
XTAP_304 VGND VPWR sky130_fd_sc_hd__tapvpwrvgnd_1
XFILLER_6_45 VGND VGND VPWR VPWR sky130_fd_sc_hd__fill_2
XFILLER_6_89 VGND VGND VPWR VPWR sky130_fd_sc_hd__fill_1
XANTENNA_5 i_wb_data[0] VGND VGND VPWR VPWR sky130_fd_sc_hd__diode_2
X_2122_ _2745_/Q _2823_/Q _2122_/S VGND VGND VPWR VPWR _2122_/X sky130_fd_sc_hd__mux2_1
X_2053_ _2272_/C _2053_/B VGND VGND VPWR VPWR _2701_/D sky130_fd_sc_hd__and2_1
XTAP_359 VGND VPWR sky130_fd_sc_hd__tapvpwrvgnd_1
XFILLER_13_3 VGND VGND VPWR VPWR sky130_fd_sc_hd__decap_4
XFILLER_22_304 VGND VGND VPWR VPWR sky130_fd_sc_hd__decap_4
XFILLER_19_194 VGND VGND VPWR VPWR sky130_fd_sc_hd__decap_4
X_1837_ _2758_/Q _2027_/S VGND VGND VPWR VPWR _1837_/X sky130_fd_sc_hd__and2_1
X_1906_ _2262_/B _1896_/X _1905_/X _2172_/A VGND VGND VPWR VPWR _1906_/X sky130_fd_sc_hd__a211o_1
X_2886_ _2893_/CLK _2886_/D VGND VGND VPWR VPWR _2886_/Q sky130_fd_sc_hd__dfxtp_1
X_1768_ _2662_/Q _1787_/A _1763_/X _1767_/X VGND VGND VPWR VPWR _1768_/X sky130_fd_sc_hd__a211o_1
X_1699_ _1988_/B _1698_/X _1695_/Y VGND VGND VPWR VPWR _1699_/Y sky130_fd_sc_hd__o21ai_1
XFILLER_25_164 VGND VGND VPWR VPWR sky130_fd_sc_hd__decap_4
XFILLER_25_131 VGND VGND VPWR VPWR sky130_fd_sc_hd__decap_4
XFILLER_40_167 VGND VPWR VPWR VGND sky130_ef_sc_hd__decap_12
XFILLER_40_123 VGND VGND VPWR VPWR sky130_fd_sc_hd__decap_4
XFILLER_40_112 VGND VGND VPWR VPWR sky130_fd_sc_hd__decap_4
XFILLER_21_381 VGND VGND VPWR VPWR sky130_fd_sc_hd__decap_4
XFILLER_21_370 VGND VGND VPWR VPWR sky130_fd_sc_hd__decap_4
Xoutput75 _2802_/Q VGND VGND VPWR VPWR o_wb_data[13] sky130_fd_sc_hd__clkbuf_1
Xoutput64 _1322_/X VGND VGND VPWR VPWR o_qspi_dat[1] sky130_fd_sc_hd__clkbuf_1
Xoutput86 _2806_/Q VGND VGND VPWR VPWR o_wb_data[23] sky130_fd_sc_hd__clkbuf_1
Xoutput97 _2793_/Q VGND VGND VPWR VPWR o_wb_data[4] sky130_fd_sc_hd__clkbuf_1
XFILLER_56_94 VGND VGND VPWR VPWR sky130_fd_sc_hd__decap_8
XFILLER_16_197 VGND VGND VPWR VPWR sky130_fd_sc_hd__fill_1
X_1622_ _2262_/A _1622_/B _2172_/A _1688_/B VGND VGND VPWR VPWR _1623_/C sky130_fd_sc_hd__or4b_1
X_2740_ _2742_/CLK _2740_/D VGND VGND VPWR VPWR _2740_/Q sky130_fd_sc_hd__dfxtp_1
XFILLER_8_363 VGND VGND VPWR VPWR sky130_fd_sc_hd__fill_1
XFILLER_12_381 VGND VGND VPWR VPWR sky130_fd_sc_hd__decap_4
X_2671_ _2876_/CLK _2671_/D VGND VGND VPWR VPWR _2671_/Q sky130_fd_sc_hd__dfxtp_1
X_1553_ _2623_/Q input4/X _2399_/S VGND VGND VPWR VPWR _1553_/X sky130_fd_sc_hd__mux2_1
XFILLER_39_223 VGND VGND VPWR VPWR sky130_fd_sc_hd__fill_1
X_1484_ _1759_/B _1488_/B _1484_/C VGND VGND VPWR VPWR _1484_/X sky130_fd_sc_hd__and3_1
XTAP_167 VGND VPWR sky130_fd_sc_hd__tapvpwrvgnd_1
XTAP_156 VGND VPWR sky130_fd_sc_hd__tapvpwrvgnd_1
XTAP_134 VGND VPWR sky130_fd_sc_hd__tapvpwrvgnd_1
XTAP_145 VGND VPWR sky130_fd_sc_hd__tapvpwrvgnd_1
XTAP_178 VGND VPWR sky130_fd_sc_hd__tapvpwrvgnd_1
XTAP_189 VGND VPWR sky130_fd_sc_hd__tapvpwrvgnd_1
X_2036_ _2732_/Q _2036_/B VGND VGND VPWR VPWR _2036_/Y sky130_fd_sc_hd__nand2_1
X_2105_ _2719_/Q _1489_/A _2121_/S VGND VGND VPWR VPWR _2719_/D sky130_fd_sc_hd__mux2_1
XFILLER_22_189 VGND VGND VPWR VPWR sky130_fd_sc_hd__decap_6
X_2869_ _2877_/CLK _2869_/D VGND VGND VPWR VPWR _2869_/Q sky130_fd_sc_hd__dfxtp_1
XFILLER_45_259 VGND VGND VPWR VPWR sky130_fd_sc_hd__decap_8
XFILLER_45_248 VGND VGND VPWR VPWR sky130_fd_sc_hd__decap_4
XFILLER_26_20 VGND VGND VPWR VPWR sky130_fd_sc_hd__decap_8
XFILLER_9_105 VGND VGND VPWR VPWR sky130_fd_sc_hd__decap_6
XFILLER_42_85 VGND VGND VPWR VPWR sky130_fd_sc_hd__fill_1
XFILLER_3_57 VGND VGND VPWR VPWR sky130_fd_sc_hd__fill_2
XFILLER_51_207 VGND VGND VPWR VPWR sky130_fd_sc_hd__fill_2
XFILLER_36_248 VGND VGND VPWR VPWR sky130_fd_sc_hd__decap_4
X_2723_ _2724_/CLK _2723_/D VGND VGND VPWR VPWR _2723_/Q sky130_fd_sc_hd__dfxtp_1
X_1605_ _2649_/Q _2646_/Q _2818_/Q VGND VGND VPWR VPWR _1605_/X sky130_fd_sc_hd__mux2_1
X_1536_ _1782_/A _2737_/Q _2775_/Q VGND VGND VPWR VPWR _1536_/X sky130_fd_sc_hd__and3_1
X_2585_ _2891_/Q _2585_/B VGND VGND VPWR VPWR _2592_/B sky130_fd_sc_hd__or2_1
X_2654_ _2743_/CLK _2654_/D VGND VGND VPWR VPWR _2654_/Q sky130_fd_sc_hd__dfxtp_1
XFILLER_59_307 VGND VGND VPWR VPWR sky130_fd_sc_hd__fill_1
X_1398_ _1914_/B _1731_/C _2193_/A VGND VGND VPWR VPWR _1398_/X sky130_fd_sc_hd__o21a_1
X_1467_ _2729_/Q _2730_/Q _1474_/B VGND VGND VPWR VPWR _1469_/A sky130_fd_sc_hd__and3_1
X_2019_ _2264_/A _1835_/A _1726_/A _1662_/A _1700_/B VGND VGND VPWR VPWR _2019_/X
+ sky130_fd_sc_hd__o41a_1
XFILLER_35_281 VGND VGND VPWR VPWR sky130_fd_sc_hd__decap_4
XFILLER_58_340 VGND VGND VPWR VPWR sky130_fd_sc_hd__decap_4
XFILLER_53_40 VGND VGND VPWR VPWR sky130_fd_sc_hd__decap_4
XFILLER_5_141 VGND VGND VPWR VPWR sky130_fd_sc_hd__decap_6
XFILLER_5_174 VGND VGND VPWR VPWR sky130_fd_sc_hd__decap_4
X_2370_ _2824_/Q _1551_/X _2819_/D VGND VGND VPWR VPWR _2824_/D sky130_fd_sc_hd__mux2_1
X_1321_ _2738_/Q _2812_/Q VGND VGND VPWR VPWR _1321_/X sky130_fd_sc_hd__and2b_1
XFILLER_24_218 VGND VGND VPWR VPWR sky130_fd_sc_hd__fill_1
X_2706_ _2857_/CLK _2706_/D VGND VGND VPWR VPWR _2706_/Q sky130_fd_sc_hd__dfxtp_1
XFILLER_59_104 VGND VGND VPWR VPWR sky130_fd_sc_hd__fill_1
X_2637_ _2844_/CLK _2637_/D VGND VGND VPWR VPWR _2637_/Q sky130_fd_sc_hd__dfxtp_1
XFILLER_58_29 VGND VGND VPWR VPWR sky130_fd_sc_hd__decap_4
X_1519_ _2209_/A _2209_/B _1518_/X VGND VGND VPWR VPWR _1519_/X sky130_fd_sc_hd__a21bo_1
X_2499_ _2673_/Q _2419_/A _2343_/X _2498_/X _2437_/X VGND VGND VPWR VPWR _2499_/X
+ sky130_fd_sc_hd__a221o_1
X_2568_ _2686_/Q _2683_/Q _2655_/Q VGND VGND VPWR VPWR _2568_/X sky130_fd_sc_hd__mux2_1
XFILLER_55_332 VGND VGND VPWR VPWR sky130_fd_sc_hd__decap_4
XFILLER_55_310 VGND VGND VPWR VPWR sky130_fd_sc_hd__fill_1
XFILLER_23_43 VGND VGND VPWR VPWR sky130_fd_sc_hd__decap_4
XFILLER_23_98 VGND VGND VPWR VPWR sky130_fd_sc_hd__decap_4
XFILLER_61_346 VGND VGND VPWR VPWR sky130_fd_sc_hd__decap_8
XFILLER_58_192 VGND VGND VPWR VPWR sky130_fd_sc_hd__decap_4
XFILLER_58_181 VGND VGND VPWR VPWR sky130_fd_sc_hd__decap_4
XFILLER_46_365 VGND VGND VPWR VPWR sky130_fd_sc_hd__decap_4
X_1870_ _2676_/Q _1787_/A _1864_/X _1869_/X VGND VGND VPWR VPWR _1870_/X sky130_fd_sc_hd__a211o_1
X_2353_ _2606_/A _2888_/Q _2594_/B _2350_/Y _2688_/Q VGND VGND VPWR VPWR _2353_/X
+ sky130_fd_sc_hd__o32a_1
X_2422_ _2820_/Q _2334_/B _1311_/B _2410_/A VGND VGND VPWR VPWR _2583_/B sky130_fd_sc_hd__a31oi_4
X_2284_ _2283_/X _2783_/Q _2292_/S VGND VGND VPWR VPWR _2783_/D sky130_fd_sc_hd__mux2_1
XFILLER_56_118 VGND VGND VPWR VPWR sky130_fd_sc_hd__decap_6
XFILLER_49_192 VGND VGND VPWR VPWR sky130_fd_sc_hd__decap_4
XFILLER_20_232 VGND VGND VPWR VPWR sky130_fd_sc_hd__decap_8
X_1999_ _1999_/A _1999_/B VGND VGND VPWR VPWR _1999_/Y sky130_fd_sc_hd__nor2_1
XFILLER_20_298 VGND VGND VPWR VPWR sky130_fd_sc_hd__decap_8
XFILLER_43_346 VGND VGND VPWR VPWR sky130_fd_sc_hd__decap_4