*SPEF "ieee 1481-1999"
*DESIGN "wbqspiflash"
*DATE "11:11:11 Fri 11 11, 1111"
*VENDOR "OpenRCX"
*PROGRAM "Parallel Extraction"
*VERSION "1.0"
*DESIGN_FLOW "NAME_SCOPE LOCAL" "PIN_CAP NONE"
*DIVIDER /
*DELIMITER :
*BUS_DELIMITER []
*T_UNIT 1 NS
*C_UNIT 1 PF
*R_UNIT 1 OHM
*L_UNIT 1 HENRY

*NAME_MAP
*3 i_clk
*4 i_qspi_dat[0]
*5 i_qspi_dat[1]
*6 i_qspi_dat[2]
*7 i_qspi_dat[3]
*8 i_wb_addr[0]
*9 i_wb_addr[10]
*10 i_wb_addr[11]
*11 i_wb_addr[12]
*12 i_wb_addr[13]
*13 i_wb_addr[14]
*14 i_wb_addr[15]
*15 i_wb_addr[16]
*16 i_wb_addr[17]
*17 i_wb_addr[18]
*18 i_wb_addr[19]
*19 i_wb_addr[1]
*20 i_wb_addr[2]
*21 i_wb_addr[3]
*22 i_wb_addr[4]
*23 i_wb_addr[5]
*24 i_wb_addr[6]
*25 i_wb_addr[7]
*26 i_wb_addr[8]
*27 i_wb_addr[9]
*28 i_wb_ctrl_stb
*29 i_wb_cyc
*30 i_wb_data[0]
*31 i_wb_data[10]
*32 i_wb_data[11]
*33 i_wb_data[12]
*34 i_wb_data[13]
*35 i_wb_data[14]
*36 i_wb_data[15]
*37 i_wb_data[16]
*38 i_wb_data[17]
*39 i_wb_data[18]
*40 i_wb_data[19]
*41 i_wb_data[1]
*42 i_wb_data[20]
*43 i_wb_data[21]
*44 i_wb_data[22]
*45 i_wb_data[23]
*46 i_wb_data[24]
*47 i_wb_data[25]
*48 i_wb_data[26]
*49 i_wb_data[27]
*50 i_wb_data[28]
*51 i_wb_data[29]
*52 i_wb_data[2]
*53 i_wb_data[30]
*54 i_wb_data[31]
*55 i_wb_data[3]
*56 i_wb_data[4]
*57 i_wb_data[5]
*58 i_wb_data[6]
*59 i_wb_data[7]
*60 i_wb_data[8]
*61 i_wb_data[9]
*62 i_wb_data_stb
*63 i_wb_we
*64 o_interrupt
*65 o_qspi_cs_n
*66 o_qspi_dat[0]
*67 o_qspi_dat[1]
*68 o_qspi_dat[2]
*69 o_qspi_dat[3]
*70 o_qspi_mod[0]
*71 o_qspi_mod[1]
*72 o_qspi_sck
*73 o_wb_ack
*74 o_wb_data[0]
*75 o_wb_data[10]
*76 o_wb_data[11]
*77 o_wb_data[12]
*78 o_wb_data[13]
*79 o_wb_data[14]
*80 o_wb_data[15]
*81 o_wb_data[16]
*82 o_wb_data[17]
*83 o_wb_data[18]
*84 o_wb_data[19]
*85 o_wb_data[1]
*86 o_wb_data[20]
*87 o_wb_data[21]
*88 o_wb_data[22]
*89 o_wb_data[23]
*90 o_wb_data[24]
*91 o_wb_data[25]
*92 o_wb_data[26]
*93 o_wb_data[27]
*94 o_wb_data[28]
*95 o_wb_data[29]
*96 o_wb_data[2]
*97 o_wb_data[30]
*98 o_wb_data[31]
*99 o_wb_data[3]
*100 o_wb_data[4]
*101 o_wb_data[5]
*102 o_wb_data[6]
*103 o_wb_data[7]
*104 o_wb_data[8]
*105 o_wb_data[9]
*106 o_wb_stall
*107 _0000_
*108 _0001_
*109 _0002_
*110 _0003_
*111 _0004_
*112 _0005_
*113 _0006_
*114 _0007_
*115 _0008_
*116 _0009_
*117 _0010_
*118 _0011_
*119 _0012_
*120 _0013_
*121 _0014_
*122 _0015_
*123 _0016_
*124 _0017_
*125 _0018_
*126 _0019_
*127 _0020_
*128 _0021_
*129 _0022_
*130 _0023_
*131 _0024_
*132 _0025_
*133 _0026_
*134 _0027_
*135 _0028_
*136 _0029_
*137 _0030_
*138 _0031_
*139 _0032_
*140 _0033_
*141 _0034_
*142 _0035_
*143 _0036_
*144 _0037_
*145 _0038_
*146 _0039_
*147 _0040_
*148 _0041_
*149 _0042_
*150 _0043_
*151 _0044_
*152 _0045_
*153 _0046_
*154 _0047_
*155 _0048_
*156 _0049_
*157 _0050_
*158 _0051_
*159 _0052_
*160 _0053_
*161 _0054_
*162 _0055_
*163 _0056_
*164 _0057_
*165 _0058_
*166 _0059_
*167 _0060_
*168 _0061_
*169 _0062_
*170 _0063_
*171 _0064_
*172 _0065_
*173 _0066_
*174 _0067_
*175 _0068_
*176 _0069_
*177 _0070_
*178 _0071_
*179 _0072_
*180 _0073_
*181 _0074_
*182 _0075_
*183 _0076_
*184 _0077_
*185 _0078_
*186 _0079_
*187 _0080_
*188 _0081_
*189 _0082_
*190 _0083_
*191 _0084_
*192 _0085_
*193 _0086_
*194 _0087_
*195 _0088_
*196 _0089_
*197 _0090_
*198 _0091_
*199 _0092_
*200 _0093_
*201 _0094_
*202 _0095_
*203 _0096_
*204 _0097_
*205 _0098_
*206 _0099_
*207 _0100_
*208 _0101_
*209 _0102_
*210 _0103_
*211 _0104_
*212 _0105_
*213 _0106_
*214 _0107_
*215 _0108_
*216 _0109_
*217 _0110_
*218 _0111_
*219 _0112_
*220 _0113_
*221 _0114_
*222 _0115_
*223 _0116_
*224 _0117_
*225 _0118_
*226 _0119_
*227 _0120_
*228 _0121_
*229 _0122_
*230 _0123_
*231 _0124_
*232 _0125_
*233 _0126_
*234 _0127_
*235 _0128_
*236 _0129_
*237 _0130_
*238 _0131_
*239 _0132_
*240 _0133_
*241 _0134_
*242 _0135_
*243 _0136_
*244 _0137_
*245 _0138_
*246 _0139_
*247 _0140_
*248 _0141_
*249 _0142_
*250 _0143_
*251 _0144_
*252 _0145_
*253 _0146_
*254 _0147_
*255 _0148_
*256 _0149_
*257 _0150_
*258 _0151_
*259 _0152_
*260 _0153_
*261 _0154_
*262 _0155_
*263 _0156_
*264 _0157_
*265 _0158_
*266 _0159_
*267 _0160_
*268 _0161_
*269 _0162_
*270 _0163_
*271 _0164_
*272 _0165_
*273 _0166_
*274 _0167_
*275 _0168_
*276 _0169_
*277 _0170_
*278 _0171_
*279 _0172_
*280 _0173_
*281 _0174_
*282 _0175_
*283 _0176_
*284 _0177_
*285 _0178_
*286 _0179_
*287 _0180_
*288 _0181_
*289 _0182_
*290 _0183_
*291 _0184_
*292 _0185_
*293 _0186_
*294 _0187_
*295 _0188_
*296 _0189_
*297 _0190_
*298 _0191_
*299 _0192_
*300 _0193_
*301 _0194_
*302 _0195_
*303 _0196_
*304 _0197_
*305 _0198_
*306 _0199_
*307 _0200_
*308 _0201_
*309 _0202_
*310 _0203_
*311 _0204_
*312 _0205_
*313 _0206_
*314 _0207_
*315 _0208_
*316 _0209_
*317 _0210_
*318 _0211_
*319 _0212_
*320 _0213_
*321 _0214_
*322 _0215_
*323 _0216_
*324 _0217_
*325 _0218_
*326 _0219_
*327 _0220_
*328 _0221_
*329 _0222_
*330 _0223_
*331 _0224_
*332 _0225_
*333 _0226_
*334 _0227_
*335 _0228_
*336 _0229_
*337 _0230_
*338 _0231_
*339 _0232_
*340 _0233_
*341 _0234_
*342 _0235_
*343 _0236_
*344 _0237_
*345 _0238_
*346 _0239_
*347 _0240_
*348 _0241_
*349 _0242_
*350 _0243_
*351 _0244_
*352 _0245_
*353 _0246_
*354 _0247_
*355 _0248_
*356 _0249_
*357 _0250_
*358 _0251_
*359 _0252_
*360 _0253_
*361 _0254_
*362 _0255_
*363 _0256_
*364 _0257_
*365 _0258_
*366 _0259_
*367 _0260_
*368 _0261_
*369 _0262_
*370 _0263_
*371 _0264_
*372 _0265_
*373 _0266_
*374 _0267_
*375 _0268_
*376 _0269_
*377 _0270_
*378 _0271_
*379 _0272_
*380 _0273_
*381 _0274_
*382 _0275_
*383 _0276_
*384 _0277_
*385 _0278_
*386 _0279_
*387 _0280_
*388 _0281_
*389 _0282_
*390 _0283_
*391 _0284_
*392 _0285_
*393 _0286_
*394 _0287_
*395 _0288_
*396 _0289_
*397 _0290_
*398 _0291_
*399 _0292_
*400 _0293_
*401 _0294_
*402 _0295_
*403 _0296_
*404 _0297_
*405 _0298_
*406 _0299_
*407 _0300_
*408 _0301_
*409 _0302_
*410 _0303_
*411 _0304_
*412 _0305_
*413 _0306_
*414 _0307_
*415 _0308_
*416 _0309_
*417 _0310_
*418 _0311_
*419 _0312_
*420 _0313_
*421 _0314_
*422 _0315_
*423 _0316_
*424 _0317_
*425 _0318_
*426 _0319_
*427 _0320_
*428 _0321_
*429 _0322_
*430 _0323_
*431 _0324_
*432 _0325_
*433 _0326_
*434 _0327_
*435 _0328_
*436 _0329_
*437 _0330_
*438 _0331_
*439 _0332_
*440 _0333_
*441 _0334_
*442 _0335_
*443 _0336_
*444 _0337_
*445 _0338_
*446 _0339_
*447 _0340_
*448 _0341_
*449 _0342_
*450 _0343_
*451 _0344_
*452 _0345_
*453 _0346_
*454 _0347_
*455 _0348_
*456 _0349_
*457 _0350_
*458 _0351_
*459 _0352_
*460 _0353_
*461 _0354_
*462 _0355_
*463 _0356_
*464 _0357_
*465 _0358_
*466 _0359_
*467 _0360_
*468 _0361_
*469 _0362_
*470 _0363_
*471 _0364_
*472 _0365_
*473 _0366_
*474 _0367_
*475 _0368_
*476 _0369_
*477 _0370_
*478 _0371_
*479 _0372_
*480 _0373_
*481 _0374_
*482 _0375_
*483 _0376_
*484 _0377_
*485 _0378_
*486 _0379_
*487 _0380_
*488 _0381_
*489 _0382_
*490 _0383_
*491 _0384_
*492 _0385_
*493 _0386_
*494 _0387_
*495 _0388_
*496 _0389_
*497 _0390_
*498 _0391_
*499 _0392_
*500 _0393_
*501 _0394_
*502 _0395_
*503 _0396_
*504 _0397_
*505 _0398_
*506 _0399_
*507 _0400_
*508 _0401_
*509 _0402_
*510 _0403_
*511 _0404_
*512 _0405_
*513 _0406_
*514 _0407_
*515 _0408_
*516 _0409_
*517 _0410_
*518 _0411_
*519 _0412_
*520 _0413_
*521 _0414_
*522 _0415_
*523 _0416_
*524 _0417_
*525 _0418_
*526 _0419_
*527 _0420_
*528 _0421_
*529 _0422_
*530 _0423_
*531 _0424_
*532 _0425_
*533 _0426_
*534 _0427_
*535 _0428_
*536 _0429_
*537 _0430_
*538 _0431_
*539 _0432_
*540 _0433_
*541 _0434_
*542 _0435_
*543 _0436_
*544 _0437_
*545 _0438_
*546 _0439_
*547 _0440_
*548 _0441_
*549 _0442_
*550 _0443_
*551 _0444_
*552 _0445_
*553 _0446_
*554 _0447_
*555 _0448_
*556 _0449_
*557 _0450_
*558 _0451_
*559 _0452_
*560 _0453_
*561 _0454_
*562 _0455_
*563 _0456_
*564 _0457_
*565 _0458_
*566 _0459_
*567 _0460_
*568 _0461_
*569 _0462_
*570 _0463_
*571 _0464_
*572 _0465_
*573 _0466_
*574 _0467_
*575 _0468_
*576 _0469_
*577 _0470_
*578 _0471_
*579 _0472_
*580 _0473_
*581 _0474_
*582 _0475_
*583 _0476_
*584 _0477_
*585 _0478_
*586 _0479_
*587 _0480_
*588 _0481_
*589 _0482_
*590 _0483_
*591 _0484_
*592 _0485_
*593 _0486_
*594 _0487_
*595 _0488_
*596 _0489_
*597 _0490_
*598 _0491_
*599 _0492_
*600 _0493_
*601 _0494_
*602 _0495_
*603 _0496_
*604 _0497_
*605 _0498_
*606 _0499_
*607 _0500_
*608 _0501_
*609 _0502_
*610 _0503_
*611 _0504_
*612 _0505_
*613 _0506_
*614 _0507_
*615 _0508_
*616 _0509_
*617 _0510_
*618 _0511_
*619 _0512_
*620 _0513_
*621 _0514_
*622 _0515_
*623 _0516_
*624 _0517_
*625 _0518_
*626 _0519_
*627 _0520_
*628 _0521_
*629 _0522_
*630 _0523_
*631 _0524_
*632 _0525_
*633 _0526_
*634 _0527_
*635 _0528_
*636 _0529_
*637 _0530_
*638 _0531_
*639 _0532_
*640 _0533_
*641 _0534_
*642 _0535_
*643 _0536_
*644 _0537_
*645 _0538_
*646 _0539_
*647 _0540_
*648 _0541_
*649 _0542_
*650 _0543_
*651 _0544_
*652 _0545_
*653 _0546_
*654 _0547_
*655 _0548_
*656 _0549_
*657 _0550_
*658 _0551_
*659 _0552_
*660 _0553_
*661 _0554_
*662 _0555_
*663 _0556_
*664 _0557_
*665 _0558_
*666 _0559_
*667 _0560_
*668 _0561_
*669 _0562_
*670 _0563_
*671 _0564_
*672 _0565_
*673 _0566_
*674 _0567_
*675 _0568_
*676 _0569_
*677 _0570_
*678 _0571_
*679 _0572_
*680 _0573_
*681 _0574_
*682 _0575_
*683 _0576_
*684 _0577_
*685 _0578_
*686 _0579_
*687 _0580_
*688 _0581_
*689 _0582_
*690 _0583_
*691 _0584_
*692 _0585_
*693 _0586_
*694 _0587_
*695 _0588_
*696 _0589_
*697 _0590_
*698 _0591_
*699 _0592_
*700 _0593_
*701 _0594_
*702 _0595_
*703 _0596_
*704 _0597_
*705 _0598_
*706 _0599_
*707 _0600_
*708 _0601_
*709 _0602_
*710 _0603_
*711 _0604_
*712 _0605_
*713 _0606_
*714 _0607_
*715 _0608_
*716 _0609_
*717 _0610_
*718 _0611_
*719 _0612_
*720 _0613_
*721 _0614_
*722 _0615_
*723 _0616_
*724 _0617_
*725 _0618_
*726 _0619_
*727 _0620_
*728 _0621_
*729 _0622_
*730 _0623_
*731 _0624_
*732 _0625_
*733 _0626_
*734 _0627_
*735 _0628_
*736 _0629_
*737 _0630_
*738 _0631_
*739 _0632_
*740 _0633_
*741 _0634_
*742 _0635_
*743 _0636_
*744 _0637_
*745 _0638_
*746 _0639_
*747 _0640_
*748 _0641_
*749 _0642_
*750 _0643_
*751 _0644_
*752 _0645_
*753 _0646_
*754 _0647_
*755 _0648_
*756 _0649_
*757 _0650_
*758 _0651_
*759 _0652_
*760 _0653_
*761 _0654_
*762 _0655_
*763 _0656_
*764 _0657_
*765 _0658_
*766 _0659_
*767 _0660_
*768 _0661_
*769 _0662_
*770 _0663_
*771 _0664_
*772 _0665_
*773 _0666_
*774 _0667_
*775 _0668_
*776 _0669_
*777 _0670_
*778 _0671_
*779 _0672_
*780 _0673_
*781 _0674_
*782 _0675_
*783 _0676_
*784 _0677_
*785 _0678_
*786 _0679_
*787 _0680_
*788 _0681_
*789 _0682_
*790 _0683_
*791 _0684_
*792 _0685_
*793 _0686_
*794 _0687_
*795 _0688_
*796 _0689_
*797 _0690_
*798 _0691_
*799 _0692_
*800 _0693_
*801 _0694_
*802 _0695_
*803 _0696_
*804 _0697_
*805 _0698_
*806 _0699_
*807 _0700_
*808 _0701_
*809 _0702_
*810 _0703_
*811 _0704_
*812 _0705_
*813 _0706_
*814 _0707_
*815 _0708_
*816 _0709_
*817 _0710_
*818 _0711_
*819 _0712_
*820 _0713_
*821 _0714_
*822 _0715_
*823 _0716_
*824 _0717_
*825 _0718_
*826 _0719_
*827 _0720_
*828 _0721_
*829 _0722_
*830 _0723_
*831 _0724_
*832 _0725_
*833 _0726_
*834 _0727_
*835 _0728_
*836 _0729_
*837 _0730_
*838 _0731_
*839 _0732_
*840 _0733_
*841 _0734_
*842 _0735_
*843 _0736_
*844 _0737_
*845 _0738_
*846 _0739_
*847 _0740_
*848 _0741_
*849 _0742_
*850 _0743_
*851 _0744_
*852 _0745_
*853 _0746_
*854 _0747_
*855 _0748_
*856 _0749_
*857 _0750_
*858 _0751_
*859 _0752_
*860 _0753_
*861 _0754_
*862 _0755_
*863 _0756_
*864 _0757_
*865 _0758_
*866 _0759_
*867 _0760_
*868 _0761_
*869 _0762_
*870 _0763_
*871 _0764_
*872 _0765_
*873 _0766_
*874 _0767_
*875 _0768_
*876 _0769_
*877 _0770_
*878 _0771_
*879 _0772_
*880 _0773_
*881 _0774_
*882 _0775_
*883 _0776_
*884 _0777_
*885 _0778_
*886 _0779_
*887 _0780_
*888 _0781_
*889 _0782_
*890 _0783_
*891 _0784_
*892 _0785_
*893 _0786_
*894 _0787_
*895 _0788_
*896 _0789_
*897 _0790_
*898 _0791_
*899 _0792_
*900 _0793_
*901 _0794_
*902 _0795_
*903 _0796_
*904 _0797_
*905 _0798_
*906 _0799_
*907 _0800_
*908 _0801_
*909 _0802_
*910 _0803_
*911 _0804_
*912 _0805_
*913 _0806_
*914 _0807_
*915 _0808_
*916 _0809_
*917 _0810_
*918 _0811_
*919 _0812_
*920 _0813_
*921 _0814_
*922 _0815_
*923 _0816_
*924 _0817_
*925 _0818_
*926 _0819_
*927 _0820_
*928 _0821_
*929 _0822_
*930 _0823_
*931 _0824_
*932 _0825_
*933 _0826_
*934 _0827_
*935 _0828_
*936 _0829_
*937 _0830_
*938 _0831_
*939 _0832_
*940 _0833_
*941 _0834_
*942 _0835_
*943 _0836_
*944 _0837_
*945 _0838_
*946 _0839_
*947 _0840_
*948 _0841_
*949 _0842_
*950 _0843_
*951 _0844_
*952 _0845_
*953 _0846_
*954 _0847_
*955 _0848_
*956 _0849_
*957 _0850_
*958 _0851_
*959 _0852_
*960 _0853_
*961 _0854_
*962 _0855_
*963 _0856_
*964 _0857_
*965 _0858_
*966 _0859_
*967 _0860_
*968 _0861_
*969 _0862_
*970 _0863_
*971 _0864_
*972 _0865_
*973 _0866_
*974 _0867_
*975 _0868_
*976 _0869_
*977 _0870_
*978 _0871_
*979 _0872_
*980 _0873_
*981 _0874_
*982 _0875_
*983 _0876_
*984 _0877_
*985 _0878_
*986 _0879_
*987 _0880_
*988 _0881_
*989 _0882_
*990 _0883_
*991 _0884_
*992 _0885_
*993 _0886_
*994 _0887_
*995 _0888_
*996 _0889_
*997 _0890_
*998 _0891_
*999 _0892_
*1000 _0893_
*1001 _0894_
*1002 _0895_
*1003 _0896_
*1004 _0897_
*1005 _0898_
*1006 _0899_
*1007 _0900_
*1008 _0901_
*1009 _0902_
*1010 _0903_
*1011 _0904_
*1012 _0905_
*1013 _0906_
*1014 _0907_
*1015 _0908_
*1016 _0909_
*1017 _0910_
*1018 _0911_
*1019 _0912_
*1020 _0913_
*1021 _0914_
*1022 _0915_
*1023 _0916_
*1024 _0917_
*1025 _0918_
*1026 _0919_
*1027 _0920_
*1028 _0921_
*1029 _0922_
*1030 _0923_
*1031 _0924_
*1032 _0925_
*1033 _0926_
*1034 _0927_
*1035 _0928_
*1036 _0929_
*1037 _0930_
*1038 _0931_
*1039 _0932_
*1040 _0933_
*1041 _0934_
*1042 _0935_
*1043 _0936_
*1044 _0937_
*1045 _0938_
*1046 _0939_
*1047 _0940_
*1048 _0941_
*1049 _0942_
*1050 _0943_
*1051 _0944_
*1052 _0945_
*1053 _0946_
*1054 _0947_
*1055 _0948_
*1056 _0949_
*1057 _0950_
*1058 _0951_
*1059 _0952_
*1060 _0953_
*1061 _0954_
*1062 _0955_
*1063 _0956_
*1064 _0957_
*1065 _0958_
*1066 _0959_
*1067 _0960_
*1068 _0961_
*1069 _0962_
*1070 _0963_
*1071 _0964_
*1072 _0965_
*1073 _0966_
*1074 _0967_
*1075 _0968_
*1076 _0969_
*1077 _0970_
*1078 _0971_
*1079 _0972_
*1080 _0973_
*1081 _0974_
*1082 _0975_
*1083 _0976_
*1084 _0977_
*1085 _0978_
*1086 _0979_
*1087 _0980_
*1088 _0981_
*1089 _0982_
*1090 _0983_
*1091 _0984_
*1092 _0985_
*1093 _0986_
*1094 _0987_
*1095 _0988_
*1096 _0989_
*1097 _0990_
*1098 _0991_
*1099 _0992_
*1100 _0993_
*1101 _0994_
*1102 _0995_
*1103 _0996_
*1104 _0997_
*1105 _0998_
*1106 _0999_
*1107 _1000_
*1108 _1001_
*1109 _1002_
*1110 _1003_
*1111 _1004_
*1112 _1005_
*1113 _1006_
*1114 _1007_
*1115 _1008_
*1116 _1009_
*1117 _1010_
*1118 _1011_
*1119 _1012_
*1120 _1013_
*1121 _1014_
*1122 _1015_
*1123 _1016_
*1124 _1017_
*1125 _1018_
*1126 _1019_
*1127 _1020_
*1128 _1021_
*1129 _1022_
*1130 _1023_
*1131 _1024_
*1132 _1025_
*1133 _1026_
*1134 _1027_
*1135 _1028_
*1136 _1029_
*1137 _1030_
*1138 _1031_
*1139 _1032_
*1140 _1033_
*1141 _1034_
*1142 _1035_
*1143 _1036_
*1144 _1037_
*1145 _1038_
*1146 _1039_
*1147 _1040_
*1148 _1041_
*1149 _1042_
*1150 _1043_
*1151 _1044_
*1152 _1045_
*1153 _1046_
*1154 _1047_
*1155 _1048_
*1156 _1049_
*1157 _1050_
*1158 _1051_
*1159 _1052_
*1160 _1053_
*1161 _1054_
*1162 _1055_
*1163 _1056_
*1164 _1057_
*1165 _1058_
*1166 _1059_
*1167 _1060_
*1168 _1061_
*1169 _1062_
*1170 _1063_
*1171 _1064_
*1172 _1065_
*1173 _1066_
*1174 _1067_
*1175 _1068_
*1176 _1069_
*1177 _1070_
*1178 _1071_
*1179 _1072_
*1180 _1073_
*1181 _1074_
*1182 _1075_
*1183 _1076_
*1184 _1077_
*1185 _1078_
*1186 _1079_
*1187 _1080_
*1188 _1081_
*1189 _1082_
*1190 _1083_
*1191 _1084_
*1192 _1085_
*1193 _1086_
*1194 _1087_
*1195 _1088_
*1196 _1089_
*1197 _1090_
*1198 _1091_
*1199 _1092_
*1200 _1093_
*1201 _1094_
*1202 _1095_
*1203 _1096_
*1204 _1097_
*1205 _1098_
*1206 _1099_
*1207 _1100_
*1208 _1101_
*1209 _1102_
*1210 _1103_
*1211 _1104_
*1212 _1105_
*1213 _1106_
*1214 _1107_
*1215 _1108_
*1216 _1109_
*1217 _1110_
*1218 _1111_
*1219 _1112_
*1220 _1113_
*1221 _1114_
*1222 _1115_
*1223 _1116_
*1224 _1117_
*1225 _1118_
*1226 _1119_
*1227 _1120_
*1228 _1121_
*1229 _1122_
*1230 _1123_
*1231 _1124_
*1232 _1125_
*1233 _1126_
*1234 _1127_
*1235 _1128_
*1236 _1129_
*1237 _1130_
*1238 _1131_
*1239 _1132_
*1240 _1133_
*1241 _1134_
*1242 _1135_
*1243 _1136_
*1244 _1137_
*1245 _1138_
*1246 _1139_
*1247 _1140_
*1248 _1141_
*1249 _1142_
*1250 _1143_
*1251 _1144_
*1252 _1145_
*1253 _1146_
*1254 _1147_
*1255 _1148_
*1256 _1149_
*1257 _1150_
*1258 _1151_
*1259 _1152_
*1260 _1153_
*1261 _1154_
*1262 _1155_
*1263 _1156_
*1264 _1157_
*1265 _1158_
*1266 _1159_
*1267 _1160_
*1268 _1161_
*1269 _1162_
*1270 _1163_
*1271 _1164_
*1272 _1165_
*1273 _1166_
*1274 _1167_
*1275 _1168_
*1276 _1169_
*1277 _1170_
*1278 _1171_
*1279 _1172_
*1280 _1173_
*1281 _1174_
*1282 _1175_
*1283 _1176_
*1284 _1177_
*1285 _1178_
*1286 _1179_
*1287 _1180_
*1288 _1181_
*1289 _1182_
*1290 _1183_
*1291 _1184_
*1292 _1185_
*1293 _1186_
*1294 _1187_
*1295 _1188_
*1296 _1189_
*1297 _1190_
*1298 _1191_
*1299 _1192_
*1300 _1193_
*1301 _1194_
*1302 _1195_
*1303 _1196_
*1304 _1197_
*1305 _1198_
*1306 _1199_
*1307 _1200_
*1308 _1201_
*1309 _1202_
*1310 _1203_
*1311 _1204_
*1312 _1205_
*1313 _1206_
*1314 _1207_
*1315 _1208_
*1316 _1209_
*1317 _1210_
*1318 _1211_
*1319 _1212_
*1320 _1213_
*1321 _1214_
*1322 _1215_
*1323 _1216_
*1324 _1217_
*1325 _1218_
*1326 _1219_
*1327 _1220_
*1328 _1221_
*1329 _1222_
*1330 _1223_
*1331 _1224_
*1332 _1225_
*1333 _1226_
*1334 _1227_
*1335 _1228_
*1336 _1229_
*1337 _1230_
*1338 _1231_
*1339 _1232_
*1340 _1233_
*1341 _1234_
*1342 _1235_
*1343 _1236_
*1344 _1237_
*1345 _1238_
*1346 _1239_
*1347 _1240_
*1348 _1241_
*1349 _1242_
*1350 _1243_
*1351 _1244_
*1352 _1245_
*1353 _1246_
*1354 _1247_
*1355 _1248_
*1356 _1249_
*1357 _1250_
*1358 _1251_
*1359 _1252_
*1360 _1253_
*1361 _1254_
*1362 _1255_
*1363 _1256_
*1364 _1257_
*1365 _1258_
*1366 _1259_
*1367 _1260_
*1368 _1261_
*1369 _1262_
*1370 _1263_
*1371 _1264_
*1372 _1265_
*1373 _1266_
*1374 _1267_
*1375 _1268_
*1376 _1269_
*1377 _1270_
*1378 _1271_
*1379 _1272_
*1380 _1273_
*1381 _1274_
*1382 _1275_
*1383 _1276_
*1384 _1277_
*1385 _1278_
*1386 _1279_
*1387 _1280_
*1388 _1281_
*1389 _1282_
*1390 _1283_
*1391 _1284_
*1392 _1285_
*1393 _1286_
*1394 _1287_
*1395 _1288_
*1396 _1289_
*1397 _1290_
*1398 _1291_
*1399 _1292_
*1400 _1293_
*1401 _1294_
*1402 _1295_
*1403 _1296_
*1404 _1297_
*1405 _1298_
*1406 _1299_
*1407 _1300_
*1408 _1301_
*1409 _1302_
*1410 _1303_
*1411 _1304_
*1412 _1305_
*1413 _1306_
*1414 _1307_
*1415 _1308_
*1416 _1309_
*1417 _1310_
*1418 _1311_
*1419 _1312_
*1420 _1313_
*1421 _1314_
*1422 _1315_
*1423 _1316_
*1424 _1317_
*1425 _1318_
*1426 _1319_
*1427 _1320_
*1428 _1321_
*1429 _1322_
*1430 _1323_
*1431 _1324_
*1432 _1325_
*1433 _1326_
*1434 _1327_
*1435 _1328_
*1436 _1329_
*1437 _1330_
*1438 _1331_
*1439 _1332_
*1440 _1333_
*1441 _1334_
*1442 _1335_
*1443 _1336_
*1444 _1337_
*1445 _1338_
*1446 _1339_
*1447 _1340_
*1448 _1341_
*1449 _1342_
*1450 _1343_
*1451 _1344_
*1452 _1345_
*1453 _1346_
*1454 _1347_
*1455 _1348_
*1456 _1349_
*1457 _1350_
*1458 _1351_
*1459 _1352_
*1460 _1353_
*1461 _1354_
*1462 _1355_
*1463 _1356_
*1464 _1357_
*1465 _1358_
*1466 _1359_
*1467 _1360_
*1468 _1361_
*1469 _1362_
*1470 _1363_
*1471 _1364_
*1472 _1365_
*1473 _1366_
*1474 _1367_
*1475 _1368_
*1476 _1369_
*1477 _1370_
*1478 _1371_
*1479 _1372_
*1480 _1373_
*1481 _1374_
*1482 _1375_
*1483 _1376_
*1484 _1377_
*1485 _1378_
*1486 _1379_
*1487 _1380_
*1488 _1381_
*1489 _1382_
*1490 _1383_
*1491 _1384_
*1492 _1385_
*1493 _1386_
*1494 _1387_
*1495 _1388_
*1496 _1389_
*1497 _1390_
*1498 _1391_
*1499 _1392_
*1500 _1393_
*1501 _1394_
*1502 _1395_
*1503 _1396_
*1504 _1397_
*1505 _1398_
*1506 _1399_
*1507 _1400_
*1508 _1401_
*1509 _1402_
*1510 _1403_
*1511 _1404_
*1512 _1405_
*1513 _1406_
*1514 _1407_
*1515 _1408_
*1516 _1409_
*1517 _1410_
*1518 _1411_
*1519 _1412_
*1520 _1413_
*1521 _1414_
*1522 _1415_
*1523 _1416_
*1524 _1417_
*1525 _1418_
*1526 _1419_
*1527 _1420_
*1528 _1421_
*1529 _1422_
*1530 _1423_
*1531 _1424_
*1532 _1425_
*1533 _1426_
*1534 _1427_
*1535 _1428_
*1536 _1429_
*1537 _1430_
*1538 _1431_
*1539 _1432_
*1540 _1433_
*1541 _1434_
*1542 _1435_
*1543 _1436_
*1544 _1437_
*1545 _1438_
*1546 _1439_
*1547 _1440_
*1548 _1441_
*1549 _1442_
*1550 _1443_
*1551 _1444_
*1552 _1445_
*1553 _1446_
*1554 _1447_
*1555 _1448_
*1556 _1449_
*1557 _1450_
*1558 _1451_
*1559 _1452_
*1560 _1453_
*1561 _1454_
*1562 _1455_
*1563 _1456_
*1564 _1457_
*1565 _1458_
*1566 _1459_
*1567 _1460_
*1568 _1461_
*1569 _1462_
*1570 _1463_
*1571 _1464_
*1572 _1465_
*1573 _1466_
*1574 _1467_
*1575 _1468_
*1576 _1469_
*1577 _1470_
*1578 _1471_
*1579 _1472_
*1580 _1473_
*1581 _1474_
*1582 _1475_
*1583 _1476_
*1584 _1477_
*1585 _1478_
*1586 _1479_
*1587 _1480_
*1588 _1481_
*1589 _1482_
*1590 _1483_
*1591 _1484_
*1592 _1485_
*1593 _1486_
*1594 _1487_
*1595 _1488_
*1596 _1489_
*1597 _1490_
*1598 _1491_
*1599 _1492_
*1600 _1493_
*1601 _1494_
*1602 _1495_
*1603 _1496_
*1604 _1497_
*1605 _1498_
*1606 _1499_
*1607 _1500_
*1608 _1501_
*1609 _1502_
*1610 _1503_
*1611 _1504_
*1612 _1505_
*1613 _1506_
*1614 _1507_
*1615 _1508_
*1616 _1509_
*1617 _1510_
*1618 _1511_
*1619 _1512_
*1620 _1513_
*1621 _1514_
*1622 _1515_
*1623 _1516_
*1624 _1517_
*1625 _1518_
*1626 _1519_
*1627 _1520_
*1628 _1521_
*1629 _1522_
*1630 _1523_
*1631 _1524_
*1632 _1525_
*1633 _1526_
*1634 _1527_
*1635 _1528_
*1636 _1529_
*1637 _1530_
*1638 _1531_
*1639 _1532_
*1640 _1533_
*1641 _1534_
*1642 _1535_
*1643 _1536_
*1644 _1537_
*1645 _1538_
*1646 _1539_
*1647 _1540_
*1648 _1541_
*1649 _1542_
*1650 _1543_
*1651 _1544_
*1652 _1545_
*1653 _1546_
*1654 _1547_
*1655 _1548_
*1656 _1549_
*1657 _1550_
*1658 _1551_
*1659 _1552_
*1660 _1553_
*1661 _1554_
*1662 _1555_
*1663 _1556_
*1664 _1557_
*1665 _1558_
*1666 _1559_
*1667 _1560_
*1668 alt_cmd
*1669 alt_ctrl
*1670 clknet_0_i_clk
*1671 clknet_2_0__leaf_i_clk
*1672 clknet_2_1__leaf_i_clk
*1673 clknet_2_2__leaf_i_clk
*1674 clknet_2_3__leaf_i_clk
*1675 clknet_leaf_0_i_clk
*1676 clknet_leaf_10_i_clk
*1677 clknet_leaf_11_i_clk
*1678 clknet_leaf_12_i_clk
*1679 clknet_leaf_13_i_clk
*1680 clknet_leaf_14_i_clk
*1681 clknet_leaf_15_i_clk
*1682 clknet_leaf_17_i_clk
*1683 clknet_leaf_18_i_clk
*1684 clknet_leaf_19_i_clk
*1685 clknet_leaf_1_i_clk
*1686 clknet_leaf_20_i_clk
*1687 clknet_leaf_21_i_clk
*1688 clknet_leaf_22_i_clk
*1689 clknet_leaf_23_i_clk
*1690 clknet_leaf_24_i_clk
*1691 clknet_leaf_25_i_clk
*1692 clknet_leaf_26_i_clk
*1693 clknet_leaf_27_i_clk
*1694 clknet_leaf_28_i_clk
*1695 clknet_leaf_29_i_clk
*1696 clknet_leaf_30_i_clk
*1697 clknet_leaf_31_i_clk
*1698 clknet_leaf_32_i_clk
*1699 clknet_leaf_3_i_clk
*1700 clknet_leaf_4_i_clk
*1701 clknet_leaf_5_i_clk
*1702 clknet_leaf_6_i_clk
*1703 clknet_leaf_7_i_clk
*1704 clknet_leaf_8_i_clk
*1705 clknet_leaf_9_i_clk
*1706 dirty_sector
*1707 erased_sector\[0\]
*1708 erased_sector\[1\]
*1709 erased_sector\[2\]
*1710 erased_sector\[3\]
*1711 erased_sector\[4\]
*1712 erased_sector\[5\]
*1713 last_status\[0\]
*1714 last_status\[1\]
*1715 last_status\[2\]
*1716 last_status\[3\]
*1717 last_status\[4\]
*1718 last_status\[5\]
*1719 last_status\[6\]
*1720 last_status\[7\]
*1721 lldriver\.i_dir
*1722 lldriver\.i_hold
*1723 lldriver\.i_len\[0\]
*1724 lldriver\.i_len\[1\]
*1725 lldriver\.i_spd
*1726 lldriver\.i_word\[0\]
*1727 lldriver\.i_word\[10\]
*1728 lldriver\.i_word\[11\]
*1729 lldriver\.i_word\[12\]
*1730 lldriver\.i_word\[13\]
*1731 lldriver\.i_word\[14\]
*1732 lldriver\.i_word\[15\]
*1733 lldriver\.i_word\[16\]
*1734 lldriver\.i_word\[17\]
*1735 lldriver\.i_word\[18\]
*1736 lldriver\.i_word\[19\]
*1737 lldriver\.i_word\[1\]
*1738 lldriver\.i_word\[20\]
*1739 lldriver\.i_word\[21\]
*1740 lldriver\.i_word\[22\]
*1741 lldriver\.i_word\[23\]
*1742 lldriver\.i_word\[24\]
*1743 lldriver\.i_word\[25\]
*1744 lldriver\.i_word\[26\]
*1745 lldriver\.i_word\[27\]
*1746 lldriver\.i_word\[28\]
*1747 lldriver\.i_word\[29\]
*1748 lldriver\.i_word\[2\]
*1749 lldriver\.i_word\[30\]
*1750 lldriver\.i_word\[31\]
*1751 lldriver\.i_word\[3\]
*1752 lldriver\.i_word\[4\]
*1753 lldriver\.i_word\[5\]
*1754 lldriver\.i_word\[6\]
*1755 lldriver\.i_word\[7\]
*1756 lldriver\.i_word\[8\]
*1757 lldriver\.i_word\[9\]
*1758 lldriver\.i_wr
*1759 lldriver\.o_busy
*1760 lldriver\.o_cs_n
*1761 lldriver\.o_dat\[0\]
*1762 lldriver\.o_dat\[1\]
*1763 lldriver\.o_dat\[2\]
*1764 lldriver\.o_dat\[3\]
*1765 lldriver\.o_mod\[0\]
*1766 lldriver\.o_mod\[1\]
*1767 lldriver\.o_sck
*1768 lldriver\.o_valid
*1769 lldriver\.o_word\[0\]
*1770 lldriver\.o_word\[10\]
*1771 lldriver\.o_word\[11\]
*1772 lldriver\.o_word\[12\]
*1773 lldriver\.o_word\[13\]
*1774 lldriver\.o_word\[14\]
*1775 lldriver\.o_word\[15\]
*1776 lldriver\.o_word\[16\]
*1777 lldriver\.o_word\[17\]
*1778 lldriver\.o_word\[18\]
*1779 lldriver\.o_word\[19\]
*1780 lldriver\.o_word\[1\]
*1781 lldriver\.o_word\[20\]
*1782 lldriver\.o_word\[21\]
*1783 lldriver\.o_word\[22\]
*1784 lldriver\.o_word\[23\]
*1785 lldriver\.o_word\[24\]
*1786 lldriver\.o_word\[25\]
*1787 lldriver\.o_word\[26\]
*1788 lldriver\.o_word\[27\]
*1789 lldriver\.o_word\[28\]
*1790 lldriver\.o_word\[29\]
*1791 lldriver\.o_word\[2\]
*1792 lldriver\.o_word\[30\]
*1793 lldriver\.o_word\[31\]
*1794 lldriver\.o_word\[3\]
*1795 lldriver\.o_word\[4\]
*1796 lldriver\.o_word\[5\]
*1797 lldriver\.o_word\[6\]
*1798 lldriver\.o_word\[7\]
*1799 lldriver\.o_word\[8\]
*1800 lldriver\.o_word\[9\]
*1801 lldriver\.r_dir
*1802 lldriver\.r_input\[0\]
*1803 lldriver\.r_input\[10\]
*1804 lldriver\.r_input\[11\]
*1805 lldriver\.r_input\[12\]
*1806 lldriver\.r_input\[13\]
*1807 lldriver\.r_input\[14\]
*1808 lldriver\.r_input\[15\]
*1809 lldriver\.r_input\[16\]
*1810 lldriver\.r_input\[17\]
*1811 lldriver\.r_input\[18\]
*1812 lldriver\.r_input\[19\]
*1813 lldriver\.r_input\[1\]
*1814 lldriver\.r_input\[20\]
*1815 lldriver\.r_input\[21\]
*1816 lldriver\.r_input\[22\]
*1817 lldriver\.r_input\[23\]
*1818 lldriver\.r_input\[24\]
*1819 lldriver\.r_input\[25\]
*1820 lldriver\.r_input\[26\]
*1821 lldriver\.r_input\[27\]
*1822 lldriver\.r_input\[28\]
*1823 lldriver\.r_input\[29\]
*1824 lldriver\.r_input\[2\]
*1825 lldriver\.r_input\[30\]
*1826 lldriver\.r_input\[3\]
*1827 lldriver\.r_input\[4\]
*1828 lldriver\.r_input\[5\]
*1829 lldriver\.r_input\[6\]
*1830 lldriver\.r_input\[7\]
*1831 lldriver\.r_input\[8\]
*1832 lldriver\.r_input\[9\]
*1833 lldriver\.r_spd
*1834 lldriver\.r_word\[0\]
*1835 lldriver\.r_word\[10\]
*1836 lldriver\.r_word\[11\]
*1837 lldriver\.r_word\[12\]
*1838 lldriver\.r_word\[13\]
*1839 lldriver\.r_word\[14\]
*1840 lldriver\.r_word\[15\]
*1841 lldriver\.r_word\[16\]
*1842 lldriver\.r_word\[17\]
*1843 lldriver\.r_word\[18\]
*1844 lldriver\.r_word\[19\]
*1845 lldriver\.r_word\[1\]
*1846 lldriver\.r_word\[20\]
*1847 lldriver\.r_word\[21\]
*1848 lldriver\.r_word\[22\]
*1849 lldriver\.r_word\[23\]
*1850 lldriver\.r_word\[24\]
*1851 lldriver\.r_word\[25\]
*1852 lldriver\.r_word\[26\]
*1853 lldriver\.r_word\[27\]
*1854 lldriver\.r_word\[28\]
*1855 lldriver\.r_word\[29\]
*1856 lldriver\.r_word\[2\]
*1857 lldriver\.r_word\[30\]
*1858 lldriver\.r_word\[31\]
*1859 lldriver\.r_word\[3\]
*1860 lldriver\.r_word\[4\]
*1861 lldriver\.r_word\[5\]
*1862 lldriver\.r_word\[6\]
*1863 lldriver\.r_word\[7\]
*1864 lldriver\.r_word\[8\]
*1865 lldriver\.r_word\[9\]
*1866 lldriver\.spi_len\[0\]
*1867 lldriver\.spi_len\[1\]
*1868 lldriver\.spi_len\[2\]
*1869 lldriver\.spi_len\[3\]
*1870 lldriver\.spi_len\[4\]
*1871 lldriver\.spi_len\[5\]
*1872 lldriver\.state\[0\]
*1873 lldriver\.state\[1\]
*1874 lldriver\.state\[2\]
*1875 net1
*1876 net10
*1877 net100
*1878 net101
*1879 net102
*1880 net103
*1881 net11
*1882 net12
*1883 net13
*1884 net14
*1885 net15
*1886 net16
*1887 net17
*1888 net18
*1889 net19
*1890 net2
*1891 net20
*1892 net21
*1893 net22
*1894 net23
*1895 net24
*1896 net25
*1897 net26
*1898 net27
*1899 net28
*1900 net29
*1901 net3
*1902 net30
*1903 net31
*1904 net32
*1905 net33
*1906 net34
*1907 net35
*1908 net36
*1909 net37
*1910 net38
*1911 net39
*1912 net4
*1913 net40
*1914 net41
*1915 net42
*1916 net43
*1917 net44
*1918 net45
*1919 net46
*1920 net47
*1921 net48
*1922 net49
*1923 net5
*1924 net50
*1925 net51
*1926 net52
*1927 net53
*1928 net54
*1929 net55
*1930 net56
*1931 net57
*1932 net58
*1933 net59
*1934 net6
*1935 net60
*1936 net61
*1937 net62
*1938 net63
*1939 net64
*1940 net65
*1941 net66
*1942 net67
*1943 net68
*1944 net69
*1945 net7
*1946 net70
*1947 net71
*1948 net72
*1949 net73
*1950 net74
*1951 net75
*1952 net76
*1953 net77
*1954 net78
*1955 net79
*1956 net8
*1957 net80
*1958 net81
*1959 net82
*1960 net83
*1961 net84
*1962 net85
*1963 net86
*1964 net87
*1965 net88
*1966 net89
*1967 net9
*1968 net90
*1969 net91
*1970 net92
*1971 net93
*1972 net94
*1973 net95
*1974 net96
*1975 net97
*1976 net98
*1977 net99
*1978 quad_mode_enabled
*1979 reset_counter\[0\]
*1980 reset_counter\[1\]
*1981 reset_counter\[2\]
*1982 reset_counter\[3\]
*1983 reset_counter\[4\]
*1984 reset_counter\[5\]
*1985 reset_counter\[6\]
*1986 reset_counter\[7\]
*1987 reset_counter\[8\]
*1988 reset_counter\[9\]
*1989 spif_addr\[0\]
*1990 spif_addr\[10\]
*1991 spif_addr\[11\]
*1992 spif_addr\[12\]
*1993 spif_addr\[13\]
*1994 spif_addr\[14\]
*1995 spif_addr\[15\]
*1996 spif_addr\[16\]
*1997 spif_addr\[17\]
*1998 spif_addr\[18\]
*1999 spif_addr\[19\]
*2000 spif_addr\[1\]
*2001 spif_addr\[2\]
*2002 spif_addr\[3\]
*2003 spif_addr\[4\]
*2004 spif_addr\[5\]
*2005 spif_addr\[6\]
*2006 spif_addr\[7\]
*2007 spif_addr\[8\]
*2008 spif_addr\[9\]
*2009 spif_cmd
*2010 spif_ctrl
*2011 spif_data\[0\]
*2012 spif_data\[10\]
*2013 spif_data\[11\]
*2014 spif_data\[12\]
*2015 spif_data\[13\]
*2016 spif_data\[14\]
*2017 spif_data\[15\]
*2018 spif_data\[16\]
*2019 spif_data\[17\]
*2020 spif_data\[18\]
*2021 spif_data\[19\]
*2022 spif_data\[1\]
*2023 spif_data\[20\]
*2024 spif_data\[21\]
*2025 spif_data\[22\]
*2026 spif_data\[23\]
*2027 spif_data\[24\]
*2028 spif_data\[25\]
*2029 spif_data\[26\]
*2030 spif_data\[27\]
*2031 spif_data\[28\]
*2032 spif_data\[29\]
*2033 spif_data\[2\]
*2034 spif_data\[30\]
*2035 spif_data\[31\]
*2036 spif_data\[3\]
*2037 spif_data\[4\]
*2038 spif_data\[5\]
*2039 spif_data\[6\]
*2040 spif_data\[7\]
*2041 spif_data\[8\]
*2042 spif_data\[9\]
*2043 spif_override
*2044 spif_req
*2045 state\[0\]
*2046 state\[1\]
*2047 state\[2\]
*2048 state\[3\]